3
100000  xi=   1.09935893  Mean pot=  -105.06991319  Cent pot=  -108.60788249 kcal/mol
H     -0.70622481     -1.16322320     -0.77070435       0.32821359
H      0.24300167      0.22037667      0.38687894       0.15744887
H      0.46322314      0.94284653      0.38382541       0.21572578
3
200000  xi=   1.09590890  Mean pot=  -105.75526560  Cent pot=  -108.29513062 kcal/mol
H      0.36002327     -0.86965770     -1.20428688       0.23937599
H     -0.12899396      0.13146852      0.41434686       0.20275608
H     -0.23102931      0.73818918      0.78994002       0.23176298
3
300000  xi=   1.10548666  Mean pot=  -105.23228192  Cent pot=  -108.10761095 kcal/mol
H     -0.27448292      1.47667657      0.19424970       0.20244008
H      0.26817531     -0.59111004      0.23003316       0.18313792
H      0.00630761     -0.88556653     -0.42428285       0.13349887
3
400000  xi=   1.10261523  Mean pot=  -105.51999708  Cent pot=  -108.73247602 kcal/mol
H      1.34631159      0.09138376     -0.88918084       0.19115416
H     -0.30295555     -0.09148085      0.36216228       0.17030552
H     -1.04335604      0.00009709      0.52701855       0.17292213
3
500000  xi=   1.09878949  Mean pot=  -105.23228766  Cent pot=  -108.45486801 kcal/mol
H     -0.08613056     -0.56197796      1.41913133       0.16268970
H      0.26237269      0.21304601     -0.41819137       0.12979779
H     -0.17624213      0.34893196     -1.00093996       0.13875241
3
600000  xi=   1.11368633  Mean pot=  -106.11144383  Cent pot=  -106.29733226 kcal/mol
H      1.27176692     -0.77597430      0.30058438       0.18319763
H     -0.36385923      0.46582734     -0.33545036       0.22953061
H     -0.90790769      0.31014696      0.03486597       0.22085784
3
700000  xi=   1.10547546  Mean pot=  -106.61052104  Cent pot=  -108.96509636 kcal/mol
H      0.49007797      1.25592581     -0.95100807       0.20406605
H     -0.12507029     -0.32963185      0.27744230       0.12817525
H     -0.36500769     -0.92629396      0.67356576       0.14197650
3
800000  xi=   1.10212105  Mean pot=  -103.32583547  Cent pot=  -107.92306016 kcal/mol
H     -0.62260117     -1.36793116      0.11622416       0.20872272
H      0.26530444      0.53080220      0.29276275       0.15479653
H      0.35729674      0.83712896     -0.40898691       0.23409866
3
900000  xi=   1.10558029  Mean pot=  -102.09262975  Cent pot=  -108.31754748 kcal/mol
H     -0.28210115      1.20840163      0.97085321       0.19626821
H      0.34217114     -0.28019627     -0.42474301       0.22031936
H     -0.06007000     -0.92820535     -0.54611020       0.24471493
3
1000000  xi=   1.10067547  Mean pot=  -106.06765837  Cent pot=  -108.56850110 kcal/mol
H      1.01793769      1.09247019      0.41192413       0.19865833
H     -0.49732102     -0.19742742     -0.07451726       0.15270100
H     -0.52061666     -0.89504278     -0.33740688       0.16341743
3
1100000  xi=   1.10058642  Mean pot=  -103.24721290  Cent pot=  -105.33600678 kcal/mol
H      1.18743688     -0.57387926     -0.42542566       0.22177206
H     -0.38428743      0.29687020      0.47858607       0.14790864
H     -0.80314945      0.27700906     -0.05316041       0.18684824
3
1200000  xi=   1.09705905  Mean pot=  -104.90041977  Cent pot=  -108.27774841 kcal/mol
H     -0.59794526     -1.09416716     -0.86056609       0.12395906
H      0.30255279      0.46112533      0.06199347       0.17719242
H      0.29539247      0.63304183      0.79857262       0.23418451
3
1300000  xi=   1.10817524  Mean pot=  -105.94539846  Cent pot=  -108.90250411 kcal/mol
H      0.39685441      0.39620219     -1.53305530       0.16925037
H      0.00139810     -0.14330863      0.46637354       0.22191512
H     -0.39825251     -0.25289356      1.06668175       0.16194570
3
1400000  xi=   1.10083849  Mean pot=  -106.31662061  Cent pot=  -108.59754752 kcal/mol
H      0.21502013      1.25409569     -0.99720717       0.18397768
H      0.04109208     -0.30911444      0.33854795       0.14901753
H     -0.25611221     -0.94498125      0.65865922       0.14977711
3
1500000  xi=   1.09884448  Mean pot=  -103.28881303  Cent pot=  -105.92114268 kcal/mol
H     -1.07785346     -0.82344244     -0.65881385       0.24895484
H      0.27073772      0.21089345      0.30714675       0.16129243
H      0.80711573      0.61254899      0.35166710       0.18095599
3
1600000  xi=   1.11164674  Mean pot=  -103.77387762  Cent pot=  -108.38765643 kcal/mol
H     -0.06362745     -0.39654407     -1.47354017       0.23854494
H     -0.27355414      0.34000924      0.58080670       0.14792705
H      0.33718159      0.05653483      0.89273348       0.19277708
3
1700000  xi=   1.09971061  Mean pot=  -106.92131780  Cent pot=  -108.78215953 kcal/mol
H      0.31171966     -1.43813290     -0.64085072       0.21368341
H     -0.02758115      0.41794094      0.12896943       0.13007805
H     -0.28413851      1.02019196      0.51188129       0.19043361
3
1800000  xi=   1.10546753  Mean pot=  -105.53326403  Cent pot=  -108.87338540 kcal/mol
H     -1.02804587     -1.04069448      0.76257673       0.15110254
H      0.34992380      0.23163309     -0.19410470       0.18752602
H      0.67812207      0.80906139     -0.56847203       0.13560554
3
1900000  xi=   1.10729175  Mean pot=  -106.31165601  Cent pot=  -108.58991816 kcal/mol
H      0.23325220     -1.06241828      1.20338176       0.21460819
H     -0.11874127      0.26677922     -0.36170156       0.16949313
H     -0.11451093      0.79563906     -0.84168020       0.22408068
3
2000000  xi=   1.09996436  Mean pot=  -105.46585274  Cent pot=  -108.51000848 kcal/mol
H     -0.33261025      1.42845318     -0.46347133       0.19149226
H      0.07433631     -0.52900476     -0.07570719       0.15982621
H      0.25827394     -0.89944842      0.53917852       0.15587385
