96
100000  xi=   1.04251091  Mean pot=  -102.33974248  Cent pot=  -103.85199347 kcal/mol
H      0.47239761     -0.71990138      0.92415906     -1.13540095e+01    8.81039120e+00    1.37697614e+01       -1.80911510      3.22924187     -2.58293597  
H      0.41573792     -0.76037320      0.89378593      1.25402249e+01    1.64638346e+00    3.91221438e+00       -2.38587638      4.91141814     -4.48770862  
H      0.46222872     -0.79887981      0.90432294      1.42431190e+01   -1.37126503e+00    4.24630467e+00       -2.29880610      4.55614004     -4.35312432  
H      0.38925358     -0.83214328      1.01583950     -7.69824220e+00   -7.03909334e+00   -1.95743533e+00       -2.66271810      5.53964328     -5.69705416  
H      0.32545946     -0.84853920      0.85880420     -6.90429921e+00   -2.55820804e+00    1.11979570e+01       -3.49863487      8.59904581     -7.54042204  
H      0.23624636     -0.81494838      0.81756240     -3.58108462e+00   -2.32569667e+01    6.19507560e+00       -3.97629555      9.64488638     -8.39724565  
H      0.26747125     -0.88093256      0.79347741     -8.39226537e-01    5.02149497e+00   -4.86511778e+00       -2.70053592      6.09626965     -4.65128728  
H      0.33121121     -0.90951242      0.81991230     -2.91997251e+00    1.11000744e+01    3.94132268e-01       -3.21823475      7.53587092     -5.68336444  
H      0.34502404     -1.00112460      0.77654740     -2.02264702e+00    1.09806262e+00    5.17734424e+00       -2.52820200      6.12910572     -4.44055167  
H      0.40209876     -1.03384435      0.80010796      1.74557607e+00   -8.47194351e+00   -9.80468359e+00       -2.81008970      6.62241972     -4.98619842  
H      0.46639704     -0.96948122      0.71318200     -2.33284798e+00   -2.41030242e+00    2.63276938e+00       -1.66714593      1.90450948     -1.40808676  
H      0.48202503     -0.88825127      0.77209960     -1.17636850e+01    1.10511683e+01   -1.30239854e+01       -3.75437692      7.07246007     -5.48756195  
H      0.45063242     -0.74447196      0.70734401      3.74281330e+00    6.17731413e+00   -2.66057778e+00       -5.72182038      9.94755206     -8.08571115  
H      0.43870585     -0.62912840      0.60617766     -1.61479971e+00   -3.84769291e-01    6.89845361e+00       -7.89309759     11.38090021     -8.71554713  
H      0.41436404     -0.70139309      0.51823164     -2.12761108e+00   -5.24273452e+00    1.33189664e+01       -9.78827703     17.65230369    -13.08228080  
H      0.44062658     -0.58425362      0.54802811     -9.13548138e+00   -1.58801424e+00    1.90303628e+00       -0.97286433      2.04201160     -1.51300272  
H      0.44088510     -0.73820825      0.59377056      8.64646478e+00   -1.97490895e+00   -4.28499915e+00       -7.89309007     14.33271173    -11.83194681  
H      0.48597141     -0.69120652      0.47940069     -2.81638946e+00   -5.70026244e+00    1.08217604e+01        2.92687545     -3.99040825      1.09626620  
H      0.44360444     -0.75184742      0.60590266     -1.04295166e+01    2.50464762e-01   -7.12556083e+00       -6.41135257     10.07261076     -8.16736647  
H      0.44285908     -0.70128359      0.56313438     -3.64620446e+00    3.88149909e+00   -6.58628716e+00       -5.49814371      8.53407363     -6.13506515  
H      0.45144944     -0.85281086      0.58067444     -3.86407200e+00   -1.62884750e+00    1.05374774e+01       -5.51024610      9.42253462     -7.42031375  
H      0.46073613     -0.81754555      0.52421043     -1.91965697e+00    8.61272294e-01   -4.02174799e+00       -2.21575894      5.54480251     -1.36870679  
H      0.40667066     -0.82268579      0.58987754     -1.01319680e+01   -2.50591095e+00   -4.95129569e+00       -4.65646071      7.97813017     -5.83856078  
H      0.43839195     -0.86185946      0.58642921      1.86160753e+01    2.72897689e+00   -6.13475696e+00       -1.06185777      4.53912520      1.35790231  
H      0.25843521     -0.82548472      0.62185968      1.96705746e+01    1.86308371e+00    6.96894327e+00       -4.47514972     14.19953596    -13.56174075  
H      0.33933498     -0.78212634      0.63694761     -8.06341460e+00    2.33853515e+00   -3.64302668e+00       -4.10991266     12.85859411    -11.90338579  
H      0.20997462     -0.88661553      0.69979431     -4.14336327e+00    6.73342472e-01    9.01864656e+00       -1.93034393      9.95771615     -9.65958897  
H      0.17118525     -0.87229241      0.81274682      7.44924100e-01    2.44070470e+00    6.96987829e-01       -1.19312402      9.30241336     -8.95394293  
H      0.31918183     -0.79602989      0.70506469     -6.44645500e+00    1.05827673e+01    5.69273357e+00       -3.21851129      8.56980873     -6.83793934  
H      0.37515487     -0.82150635      0.84644316      1.20805160e+00    1.82845744e+00    5.15023402e-01       -3.32743838      8.04111180     -7.60951817  
H      0.35200681     -0.80305966      0.89049894      8.15120117e+00    2.29344157e+00   -1.11852832e+01       -2.96310658      6.49000766     -6.44059349  
H      0.38879508     -0.70599573      0.87576974     -5.21980498e+00    6.56016570e-01   -5.96462061e-01       -3.16629541      5.76163371     -5.62593820  
H      0.01345450      0.10666960     -0.27083937     -1.57044793e+01    1.36173666e+00    5.66395152e+00       36.83035977    -65.34502047     23.51877346  
H      0.07226320      0.24927975     -0.21459634      3.74977944e+00   -9.45908822e-02    2.99921261e+00       32.76322582    -41.72863573     22.33602767  
H      0.04626198      0.22631881     -0.09112380      7.52564603e-01   -5.13429854e+00   -1.13443813e+00       25.53048534    -35.25720655     32.46881792  
H      0.02831602      0.20946431     -0.08472651     -2.93078852e+01   -5.73911419e+00    1.89868778e+01       17.62781803    -19.29428409     18.08718491  
H     -0.00521349      0.19827757     -0.12587428      1.76785062e+00    1.11833199e+01   -1.56915077e+00      -11.17934241     13.04949405     -7.32979914  
H     -0.14291109      0.14526863     -0.06477360      6.48374570e+00   -1.04221413e+01    4.39817963e+00       -4.38367375      8.98695863     -5.94298201  
H     -0.11460926      0.21119457     -0.09419625      8.68227727e+00   -4.17225399e-01   -3.32864202e+00       20.32582206    -30.86177863     19.98682376  
H     -0.09675330      0.30499060     -0.12343374      1.95167612e+00   -5.41014601e-01   -9.20903150e+00      -22.54481701     26.85371046    -16.90618633  
H     -0.03140892      0.32721131     -0.15739032     -3.37183831e+00   -4.57515600e+00   -4.78357772e+00        3.39160517     -4.74316286      3.67446418  
H      0.03750614      0.25146727     -0.09026617      4.14692190e-01    1.17690578e+01    3.99377996e+00        8.37278514     -8.67980028      8.54212617  
H      0.01573926      0.19329443     -0.07565412     -2.11676550e+00    1.10761066e+01   -1.57881187e+00       49.93801557    -46.42889271     35.48811801  
H     -0.02936963      0.22018722     -0.06059630     -1.46277940e+00    1.03843134e+01    1.24597910e+01        8.82681074    -12.08392205     10.23253600  
H      0.01718723      0.20499589     -0.07428375      6.06380575e+00    6.12811474e+00   -1.11015650e+01       -2.04132037      1.02967786     -0.71006777  
H      0.01557020      0.17559000     -0.07673849     -6.61896364e+00   -2.23360572e+00    3.75976052e+00        0.85192337     -0.69574079      0.35035938  
H     -0.02258109      0.04225222     -0.14084696      2.61541638e+00   -5.72030577e+00    5.54615751e+00      -10.32581360     21.17487544     -9.47757792  
H      0.00995359      0.06178658     -0.00586515      3.68681120e+00   -4.66395742e+00   -1.11467581e+01        0.90135523     -2.57514822      1.70877757  
H     -0.03829096      0.12176842     -0.14468894      5.24534677e+00    2.35780703e+00   -1.18316312e+01      -19.81211899     37.53097341    -26.60624513  
H     -0.05107443      0.08016159     -0.01487875      4.93020841e+00   -1.50006114e+01   -5.33898100e+00        6.87265842    -10.95856968     14.46035448  
H     -0.02925296      0.13668879     -0.19628710     -1.56552459e+00    1.21097085e-01   -8.13190737e+00       -1.55347980      0.91046823      0.12027885  
H     -0.07334984      0.04929672     -0.33939414     -6.56989027e+00    8.02925730e+00    1.91502139e-01       15.47079910    -25.84675070      5.44751287  
H     -0.12650661     -0.04241207     -0.40190770     -8.49979426e+00    1.34028955e+00   -1.87221640e+01        7.39156673    -18.04190824      3.75052385  
H     -0.08931961     -0.07506062     -0.35036646      3.82687101e+00    9.32201476e+00    1.92299564e+00       16.98084553    -50.55861041      3.68612834  
H     -0.04272825     -0.14154633     -0.46393804     -1.01168688e+01    1.50497421e+01   -3.94201587e+00       23.26265419    -44.42532382      3.95332637  
H     -0.01833573     -0.23822982     -0.42131319     -3.86067150e+00    3.02855092e+00   -2.13768392e-01       18.84659673    -60.05230225      0.47102322  
H      0.10166369     -0.11705491     -0.53341572     -1.17140241e+01   -1.27953850e+01   -5.36713191e+00        6.21827942    -15.02876328      3.68757508  
H      0.13364389     -0.07920516     -0.43471456     -3.65311084e+00    8.10111036e+00   -6.35400433e+00        3.60496258    -10.48130604      4.04930919  
H      0.04000682     -0.08735028     -0.37261965     -5.73381353e+00   -1.49571601e+01    1.18711557e+01        1.16627932     -6.56569844      4.26349583  
H      0.08111943      0.00998813     -0.37128031     -4.72178662e+00    1.26913030e+00    5.30156541e+00       -0.28207938      0.40026520      2.95965598  
H      0.06915652     -0.04802221     -0.34943703     -1.24893831e+01    1.41840624e+01   -3.46301891e+00       15.25032825    -36.79649430      8.16703620  
H      0.05958748      0.11753257     -0.20467038     -3.30477327e+00   -7.08477909e+00    4.06195771e-01        2.54705344     -5.17517802      3.99490499  
H      0.04722855      0.11483778     -0.33553760      6.15913669e+00    1.13798619e+01   -9.55501135e+00       20.98231383    -29.30689348      8.12551958  
H     -0.05248028      0.21883373     -0.24746556      8.03702656e+00   -7.79209005e-01    2.70605595e+00       21.13427923    -30.13018791     14.37287223  
H     -0.41546357      0.86780485     -0.55513047     -1.51636212e+00    1.89775470e+01    5.76907423e+00      -35.02124467     62.11577860    -20.93583749  
H     -0.41227523      0.86030462     -0.53560016     -6.28099176e+00   -9.14943874e+00    5.20544050e+00      -30.37734944     36.81721759    -17.84831905  
H     -0.35081967      0.77093550     -0.59224169      1.59125574e+00    5.38473555e+00   -8.39057051e+00      -23.23167924     30.70106651    -28.11569360  
H     -0.42837166      0.68093575     -0.52125125     -2.38749277e+00    1.32755544e+00   -2.54572243e+00      -14.96509992     13.75464080    -12.39013076  
H     -0.39158831      0.71234656     -0.45247665     -8.61710807e+00   -8.91273088e+00    1.52535012e+00       14.67797728    -21.64853986     14.87022117  
H     -0.40061522      0.70033376     -0.46800301     -1.98051616e+00    9.97379730e+00    3.13655139e+00        8.35996929    -18.63184500     14.34022766  
H     -0.51399722      0.80755987     -0.47687697      1.11960197e+01   -8.74786599e+00   -3.80473662e-01      -17.62528614     24.76550899    -15.33553647  
H     -0.48356231      0.79479007     -0.43916539     -3.56880637e+00    1.41498470e+00   -3.46126586e+00       25.76305176    -34.38958138     22.58955076  
H     -0.51820632      0.76319614     -0.52417583     -2.72184532e+00   -1.65059436e+00   -2.39973844e+00       -0.86340317     -1.38594286      0.76608749  
H     -0.44765594      0.64615339     -0.52338379     -8.16984744e+00    5.86741285e+00    2.95226977e+00       -5.56269544      2.05738056     -3.55592775  
H     -0.57610835      0.76158508     -0.50760666     -1.28907220e+01   -2.10449367e+00   -7.36787069e-01      -48.27086964     44.52438324    -34.08003125  
H     -0.42452812      0.71797574     -0.49331978     -2.34344066e+00    8.37906810e+00    2.78365661e+00       -5.07243381      5.01146198     -4.74497405  
H     -0.42227365      0.68200608     -0.44755790     -6.95795738e-01   -9.99163254e+00    3.17900428e+00        7.76314075    -10.97722991      8.79577892  
H     -0.46466222      0.68620140     -0.40548612     -7.59118825e+00   -5.20189934e-01    1.34557528e+01        7.04117422    -10.68515942      8.36518775  
H     -0.32292350      0.64359835     -0.44116764      4.75915538e+00   -5.96740574e-01   -3.88359806e+00       20.11409062    -38.82717913     22.55985872  
H     -0.37634311      0.69080960     -0.52494930      7.79790978e+00   -9.63590538e+00   -6.23850943e+00        0.07150910      0.53313662     -0.19577485  
H     -0.31301257      0.63893089     -0.52009346     -2.25771655e+00   -2.57616554e-01    9.56042174e+00       27.70520906    -51.86368514     38.43819194  
H     -0.45387889      0.68292993     -0.56677510     -4.09215811e+00   -9.40784597e-01    3.58131749e+00       -9.79953386     14.94897793    -15.55662068  
H     -0.48650575      0.64997430     -0.49741478      3.96664222e+00    3.25647980e+00    2.60398184e+00        7.96483237    -10.98307899      8.04708762  
H     -0.48118341      0.72936878     -0.49129442     -5.51724015e+00   -7.37440302e+00   -1.66214874e+01       -9.97265539     17.31267707      0.68755228  
H     -0.39782245      0.67955870     -0.47099856      4.53976449e+00    1.63955962e+00   -1.94730978e+00       -1.88132063      8.61937362      3.66978990  
H     -0.38927478      0.74426010     -0.47770124      2.62918777e+00   -1.10263240e+00    4.18956105e+00      -14.76508659     45.01380790     -2.31742155  
H     -0.43416726      0.60300088     -0.54698855      4.05891692e+00    3.59954564e+00    4.25209017e+00      -18.60619349     36.44719365      1.88523442  
H     -0.32287229      0.63301454     -0.54767127     -1.50168024e+00    1.00111251e+00    2.61573316e+00      -17.78473897     55.51317704     -1.82892554  
H     -0.21884874      0.57711274     -0.46408226     -7.90277952e+00   -4.79080422e+00   -7.46511316e-01       -1.74312970      0.82922732      9.87416567  
H     -0.12130837      0.63779355     -0.52659903     -3.44650472e+00   -3.03106813e+00    1.56244030e+01        0.50495008     -2.37728807      7.85407660  
H     -0.07505673      0.61930708     -0.62467283     -1.30661557e+00    3.07998108e+00   -2.67950656e+00        0.76406461     -3.39201771      5.39609314  
H     -0.05062827      0.73088195     -0.49566083     -4.69677227e+00   -4.19441911e+00    2.36440840e+00        1.47520340     -9.70267856      5.99428695  
H     -0.23867142      0.69615173     -0.52342579     -8.27910516e+00    7.11597176e+00    3.31632178e+00      -12.03181695     28.22668557     -1.32909685  
H     -0.30630989      0.70897933     -0.49475507     -1.01830081e+00   -1.09138610e+01    5.35360529e+00        0.78038493     -2.86593377      3.61461318  
H     -0.41920680      0.74663121     -0.47182734     -4.91680412e+00    2.70371532e+00   -1.12223183e+01      -18.01920725     22.81688582     -1.68492609  
H     -0.49084773      0.83482924     -0.52063355     -3.12764533e-01    1.33919303e+01   -1.70599381e+00      -17.96798382     24.36855420     -8.74693404  
