96
100000  xi=   0.58872657  Mean pot=  -107.01755864  Cent pot=  -109.49755352 kcal/mol
H      0.02271205      1.60322515     -1.59204675      4.76658749e+00   -2.32056236e+00   -3.83183029e+00        1.85142278    -33.38760267    -53.36034681  
H      0.07968641      1.63361996     -1.59944315     -1.64167122e+01   -7.91542971e+00   -8.38566150e-01       -0.14849357     -0.63402755     -0.62107671  
H      0.22071557      1.65498051     -1.58228059     -9.92419664e+00   -9.01827517e+00    6.09843466e+00        8.21171066     17.17000974     15.76760366  
H      0.17401402      1.58501786     -1.51711706     -8.54989447e+00    3.16617262e+00   -1.53913037e+01        5.48439009      7.89205135     11.87198347  
H      0.18630595      1.52786190     -1.51231294     -2.40066181e+00    1.07167840e+00    1.12783324e+01      -11.26469455    -16.35996271    -31.56067690  
H      0.12971505      1.70472384     -1.54624282     -1.08000097e+01    9.51914120e-01    1.39812617e+01       -2.91479452     -5.44357133     -8.32026263  
H      0.03986374      1.88953977     -1.61182781      7.34825716e+00    2.19113835e+00    4.41250816e+00        0.56665539     35.20584687     39.74601831  
H      0.05400506      1.87178739     -1.68982561      3.23040423e+00    7.71063320e-01   -8.79082217e+00       -1.68296427    -11.68608968     -8.05989143  
H      0.03767846      1.80641510     -1.69632523     -7.64469947e+00   -2.15074242e-01   -5.45207992e+00       -5.72719649    -46.00038988    -27.23735629  
H     -0.10270087      1.91149973     -1.61971995      1.13220716e+00   -6.83549894e+00   -6.92227030e+00        5.55605126     43.59703017     26.51326710  
H     -0.10012325      1.85206141     -1.69814323      3.32138050e+00    1.67466243e+00    3.47461273e-01        1.09311362      7.14483578      3.64155602  
H     -0.20976436      1.92602997     -1.66929980     -8.35855946e+00    1.08072830e+00    8.46149996e+00       -0.57885625     38.44763418     21.55208184  
H     -0.24015677      1.84756132     -1.58135731      6.25160967e+00    1.26078547e+00   -1.03247639e+01        2.82187676     22.63497044     15.56137302  
H     -0.22466604      1.91528334     -1.64295317      3.08963126e+00    4.76248893e+00   -8.88745287e+00       20.17282162     79.53076712     43.81355123  
H     -0.23402109      1.86028193     -1.67101530     -1.85790878e+01    1.30391990e+01    1.84142202e+00       12.42975059     38.90395067     16.27141752  
H     -0.17001098      1.80156801     -1.57319826     -9.07827824e-01    3.07247868e+00    1.27846876e+01        9.98319006     32.54085054     19.82688680  
H     -0.22723771      1.90278737     -1.56868204      5.54773804e-01   -1.07515333e+01   -1.57939534e+00        0.22650999     51.34887266     34.38726449  
H     -0.27289262      1.79876239     -1.56290685      3.77254814e+00   -5.03332846e+00    1.35280231e+01        0.41201654    -44.17736925    -33.49551683  
H     -0.28857661      1.82161092     -1.55346330     -4.29290716e-01    8.88456198e-01    7.21942314e-01       -8.93167509     51.27033527     23.48829982  
H     -0.32964566      1.77721927     -1.49804687     -1.05100734e+01   -1.55427841e+01    7.93190588e+00      -12.32863595     58.96682893     36.35863167  
H     -0.20790032      1.67421794     -1.53317426     -4.72302652e+00   -1.02868878e+01   -1.51799714e+01      -17.61096369    -88.20753786    -56.51437254  
H     -0.12889363      1.64963247     -1.51490650     -7.78454472e-01    8.76274021e+00    1.11081871e+01       -7.79272127    -21.74274627    -14.99290883  
H      0.03930387      1.67368893     -1.45191927     -2.13327027e+00    1.03095467e+01   -6.84018805e+00       22.13341956     34.47687655     33.38190041  
H      0.10919146      1.67448836     -1.34279549      6.77965165e+00    1.32200355e+01    4.29946634e-01       35.94256572     41.49642088     60.23126470  
H      0.20514484      1.59185205     -1.46937962     -3.05388893e+00    6.25145136e+00    3.72228429e-01      -37.85208391    -27.44964908    -35.59563363  
H      0.17723594      1.56651202     -1.55786485      6.41336571e+00    5.26277314e-01    1.45008586e+01      -58.61837138    -48.02554766    -98.65441707  
H      0.16649496      1.76347459     -1.50054782      1.92071324e+00   -1.63020877e+01   -2.46354789e+00       21.50235746     23.80465452     36.34744945  
H      0.15355088      1.71804565     -1.50255553     -2.23055351e+00   -8.23187877e+00   -2.70610841e+00       12.37794461     18.05190304     22.85628419  
H      0.20388239      1.58429006     -1.53903006     -3.12053065e+00    3.33606674e+00    8.49581641e+00       14.02309001      8.32862135     17.65363278  
H      0.22451370      1.61665176     -1.42985055     -2.17355302e+00    1.65285370e+01   -6.12791296e+00       39.21101735     47.56431955     70.28989031  
H      0.11191531      1.62206603     -1.47244460      1.26098156e+01   -7.07279983e+00   -5.14867179e+00       21.59727811     32.41504787     39.73361230  
H      0.08867926      1.56308324     -1.57852022      1.76402440e+01   -6.35657581e+00   -1.10767466e+01       -1.88411235     -2.95602547     -4.18894195  
H      0.04269924      1.24278659     -2.16810011      1.48160589e+00    1.44922943e+00   -5.91016212e+00       -1.85143052     33.38774408     53.36016646  
H     -0.04251297      1.11178909     -2.11048800     -3.76633728e+00    1.64906165e+00    7.14345907e+00        0.14848174      0.63419182      0.62086119  
H     -0.03670584      1.11673660     -2.07656794     -4.25569550e+00    4.74173603e+00   -1.30026098e+01       -8.21172082    -17.16981686    -15.76784742  
H     -0.09932172      1.19169334     -2.10881035      1.07426055e+01   -6.15421537e-01    2.37763249e+00       -5.48439440     -7.89181487    -11.87226969  
H     -0.02579142      1.21982478     -2.10654954      5.78312366e-01    4.94834623e+00    6.78692596e+00       11.26469137     16.36019529     31.56040461  
H     -0.07553572      1.32139601     -2.13212185      9.57537099e+00    8.81595656e+00    5.17440446e-01        2.91478319      5.44378189      8.32001135  
H      0.03106263      1.34274105     -2.22914551     -4.27238170e-01   -9.61652367e+00   -4.55189042e-01       -0.56666946    -35.20563427    -39.74627739  
H     -0.03137917      1.27889312     -2.09873559      1.10377493e+00   -1.25070457e+01    1.44282338e+00        1.68295328     11.68625300      8.05970377  
H     -0.03555031      1.21824519     -2.04458474     -5.60940511e+00   -2.89858565e+00   -3.69919073e+00        5.72718538     46.00058026     27.23713823  
H     -0.19157781      1.21410665     -2.04383892     -1.28189884e+00    4.14389893e+00    4.78138791e-01       -5.55606978    -43.59679256    -26.51353203  
H     -0.20165223      1.18846166     -2.03638361     -1.77237723e+00   -3.72349195e+00    5.53967501e+00       -1.09312855     -7.14459677     -3.64182447  
H     -0.19916738      1.22216614     -2.06385970      5.39493983e+00    5.07831567e+00    8.20334483e+00        0.57883264    -38.44737609    -21.55237403  
H     -0.31978627      1.20884100     -2.02048052     -1.21386237e+00   -7.41870437e+00   -1.19874688e+01       -2.82190385    -22.63469227    -15.56168940  
H     -0.43102251      1.10173138     -2.09114250     -1.44250627e+01   -1.19060044e+01   -1.00862790e+01      -20.17285484    -79.53043184    -43.81394299  
H     -0.46211750      1.14636493     -1.96961192     -6.55766716e-01    1.44405662e+01    7.52670408e-01      -12.42978542    -38.90367209    -16.27174518  
H     -0.37238806      1.14191061     -1.97512726      6.29778072e+00   -2.49498529e+00    8.68777834e+00       -9.98321780    -32.54060615    -19.82717433  
H     -0.23033172      1.20142524     -2.03837269     -7.37372761e+00   -7.50050398e+00   -1.85645285e-01       -0.22653051    -51.34864856    -34.38753541  
H     -0.26779417      1.25210938     -1.97737945     -1.20562255e+01    5.84885981e+00   -8.63245600e+00       -0.41204019     44.17757215     33.49525224  
H     -0.15822354      1.07334838     -1.89626574     -5.41290922e+00   -1.70242393e+01    1.14972872e+00        8.93164728    -51.27005636    -23.48866037  
H     -0.17788361      1.05135517     -1.94561473     -4.26446412e+00    9.15687739e+00   -6.80676213e+00       12.32860179    -58.96650678    -36.35904611  
H     -0.31537485      1.13591177     -1.87806392      3.52469963e+00    3.74416049e+00    1.00371297e+01       17.61093077     88.20783234     56.51400021  
H     -0.33025289      1.08780773     -1.90230956      6.14665148e-01   -3.82404242e+00   -8.02228359e-01        7.79269429     21.74306015     14.99250111  
H     -0.30587715      1.13600868     -1.97252848      1.10475578e+01   -5.09234212e+00   -8.15747675e+00      -22.13344281    -34.47654508    -33.38232256  
H     -0.28830204      1.21557703     -2.00890431     -6.87094341e-01    6.37548686e+00    9.49863933e-01      -35.94257978    -41.49597880    -60.23182007  
H     -0.23496219      1.27269262     -1.88324875      3.54140389e+00    1.05037098e+00   -4.84247213e+00       37.85207438     27.44996626     35.59523234  
H     -0.12281083      1.32068534     -2.06284098      7.60048645e+00   -6.09023340e+00   -1.31103940e+01       58.61837316     48.02577206     98.65414653  
H     -0.19515484      1.36310448     -2.11188088      2.71359181e+00    4.60490050e+00   -9.39171051e+00      -21.50236354    -23.80441636    -36.34774032  
H     -0.15369842      1.26995888     -2.06990536      3.28897009e+00   -1.02970491e+01    1.05693306e+01      -12.37795202    -18.05163346    -22.85662145  
H     -0.24757381      1.31616671     -2.10737464      2.40949985e+00    2.01406054e+01    9.51200307e+00      -14.02309607     -8.32836370    -17.65394619  
H     -0.17563780      1.13125582     -2.14716629      7.73523565e+00    1.80547030e+00    2.18700119e+00      -39.21102667    -47.56402917    -70.29025029  
H     -0.21029730      1.13846339     -2.06523743      2.76231452e+00    3.94015476e+00    3.13371268e+00      -21.59729028    -32.41482296    -39.73390159  
H     -0.16491161      1.16520529     -2.14231404     -8.89391006e+00    6.32312277e+00    9.93767639e+00        1.88410008      2.95620539      4.18870913  
H      0.27470798     -2.99978002      3.85107335      1.76890776e+01    7.28966374e+00   -9.77116417e-01        0.00000774     -0.00014141      0.00018035  
H      0.32034109     -3.01550906      3.79445465     -2.95627986e+00   -9.53182625e+00   -3.98803443e+00        0.00001184     -0.00016427      0.00021552  
H      0.31083797     -3.04293018      3.70854862      5.21009834e+00    2.09853265e+01    3.33798917e+00        0.00001016     -0.00019289      0.00024376  
H      0.12434457     -3.05348196      3.58585317      3.47473772e+00    1.04497516e+01    1.56732659e+00        0.00000431     -0.00023649      0.00028622  
H      0.19948512     -3.04220839      3.61983418      4.54920584e+00   -8.24951430e+00    8.80006617e+00        0.00000319     -0.00023258      0.00027229  
H      0.27425318     -3.00068573      3.56741418      9.36520788e-01   -8.74358273e+00    5.04698963e+00        0.00001133     -0.00021056      0.00025129  
H      0.33201653     -2.90735880      3.51462273     -2.55769863e+00    7.28966063e+00    7.06451862e+00        0.00001407     -0.00021260      0.00025908  
H      0.33724248     -3.10237723      3.57697931      2.48195343e+00   -6.71541456e-01   -6.63264855e-01        0.00001099     -0.00016332      0.00018766  
H      0.28225653     -3.09060344      3.51988172     -1.04118782e+01   -4.92119176e-01    1.75344540e+00        0.00001112     -0.00019038      0.00021806  
H      0.22372891     -3.09963185      3.43066801     -1.45318865e+01   -7.29996673e+00    2.16537282e+00        0.00001851     -0.00023762      0.00026493  
H      0.14260231     -3.11727333      3.37005534     -5.00068845e+00   -3.40147464e+00   -2.27507039e+00        0.00001493     -0.00023900      0.00026845  
H      0.21748518     -3.02039661      3.37345914     -9.57257441e+00    3.48020885e-01    8.39280717e+00        0.00002361     -0.00025809      0.00029219  
H      0.16759243     -3.00571352      3.40550776      6.72066214e+00   -5.20618234e+00    9.20641164e+00        0.00002709     -0.00027817      0.00031638  
H      0.11851590     -2.95878406      3.37077085      1.66373829e+00    8.42966748e-02    7.56158513e+00        0.00003323     -0.00033527      0.00039177  
H      0.20242877     -2.99268286      3.42583029     -7.11449967e+00   -9.20016009e+00    9.78601783e+00        0.00003483     -0.00027858      0.00032766  
H      0.25229876     -3.01366985      3.56409913     -4.79346080e+00   -6.43748731e-01   -8.15344546e+00        0.00002774     -0.00024439      0.00028752  
H      0.18271789     -2.91042487      3.64971626      7.13221895e+00    3.64642100e+00   -1.58469752e+00        0.00002052     -0.00022410      0.00027092  
H      0.22532308     -2.72532689      3.77849483      3.04493809e+00    1.74738557e+00    8.69691283e-01        0.00002365     -0.00020290      0.00026459  
H      0.19787158     -2.77545240      3.72789478      2.53480152e-01    7.67303079e+00   -4.28078481e+00        0.00002781     -0.00027891      0.00036055  
H      0.18749404     -2.76101996      3.67900025      7.00519343e+00    1.61420320e+01    4.93322335e+00        0.00003417     -0.00032215      0.00041444  
H      0.21390621     -2.76927839      3.62578255      1.44505249e+01   -4.22095789e+00   -6.24563566e-01        0.00003293     -0.00029448      0.00037233  
H      0.12794991     -2.74722953      3.65509981      6.78995182e+00    6.58809382e+00   -6.03942456e+00        0.00002697     -0.00031387      0.00040772  
H      0.15386394     -2.80760866      3.62637378      2.06087875e+00   -6.13324757e+00    4.06671592e+00        0.00002325     -0.00033147      0.00042216  
H      0.07691016     -2.67964940      3.61222196     -4.81948398e+00    1.10147868e+01    2.44524742e+00        0.00001406     -0.00044208      0.00055536  
H      0.09422022     -2.77808666      3.61902679      7.70864234e+00    6.30388242e+00   -7.92542637e+00        0.00000953     -0.00031717      0.00040128  
H      0.06257425     -2.91699142      3.63458426     -6.17037966e+00    7.55651939e+00    2.34611638e+00       -0.00000178     -0.00022440      0.00027053  
H      0.11096396     -2.86187729      3.63462984     -9.96408951e+00   -8.56508783e+00   -1.32357164e+00        0.00000608     -0.00023817      0.00029086  
H      0.11214038     -2.83375652      3.60414318     -7.62681484e+00   -2.96446876e+00   -8.55703140e+00        0.00000741     -0.00026958      0.00033727  
H      0.19927562     -2.85600499      3.64925294      9.66377300e+00    9.17252036e+00   -1.01071001e+00        0.00000606     -0.00025765      0.00031341  
H      0.18180397     -2.97363104      3.65745111      2.43824797e+01    2.50029889e+00   -3.72089481e+00        0.00000932     -0.00029038      0.00035998  
H      0.17419100     -2.95191010      3.76465488      4.14329137e+00   -1.56796944e+00   -1.77232245e+01        0.00001217     -0.00022492      0.00028930  
H      0.26047085     -2.97726927      3.76677247      9.15889061e+00    1.04293006e+01    2.62371287e+00        0.00001227     -0.00017992      0.00023282  
