96
100000  xi=   0.87580150  Mean pot=  -104.91726498  Cent pot=  -107.62393935 kcal/mol
H     -0.29426652      0.02697619     -0.58682937      8.66968074e+00   -1.01580300e+01   -1.31483845e+00      -29.90093147    -46.91340679    -45.75926193  
H     -0.29535448      0.02481508     -0.56460190     -1.29494450e+01    6.55981519e+00    1.66253893e+00        3.64207778      5.98508427      5.03714609  
H     -0.20383782      0.05686755     -0.46342828     -4.33988066e+00    1.71291139e+00   -6.53394404e+00       30.79212639     49.56288907     51.34925924  
H     -0.25145582      0.09209455     -0.51062469      3.52983599e+00    7.98886836e-01   -6.49620202e-01       30.01716293     50.86245810     38.66755622  
H     -0.19676237     -0.00164009     -0.52293031     -5.00750389e+00    5.17890113e+00   -6.57714118e-01        6.32116645      7.43490641      7.17417240  
H     -0.18908060      0.13135777     -0.59000176      3.18821716e+00    1.32632860e+01    1.23919662e+01       16.32854034     14.69023793     11.63187185  
H     -0.18196201      0.25255144     -0.65363577     -6.78089473e+00   -2.43728872e+00    1.46732914e+01       32.68455785     31.97868384     25.85196361  
H     -0.15988335      0.25812317     -0.68572978     -3.76586012e+00   -3.77947353e+00   -4.22502705e+00       52.72649854     52.91346286     23.97996267  
H     -0.18295861      0.20268901     -0.63790924     -1.40466774e+00   -4.50374857e+00   -8.55341858e+00       53.26655853     55.35837013     30.14438178  
H     -0.34268793      0.27189510     -0.62805243      1.71923592e+00   -1.23839452e+00   -6.80147797e+00       51.04070599     59.68639664     25.05012018  
H     -0.34323061      0.16847760     -0.71639631      2.07275832e+00   -8.34013657e-01    2.60339040e+00       23.89932866     22.03124166      7.33894977  
H     -0.42072206      0.17348913     -0.70550427      9.79587941e-02    7.82141322e+00    1.36908410e+01      -23.20429143    -18.82549816     -8.89189894  
H     -0.50075086      0.03722963     -0.65035972      9.13131281e-01   -1.42415081e+00   -9.73894632e+00     -165.51493750    -78.93047632    -58.01570459  
H     -0.56203148      0.07252604     -0.63112364      1.78045691e+00   -1.01631923e+00   -1.22131321e+01      -23.63186717    -16.72126110    -17.19137279  
H     -0.54770251      0.04653161     -0.57165869     -7.30840738e+00    1.24428986e+01    1.08218349e+01        3.22975272      1.69626079      2.25435729  
H     -0.49237510     -0.04673173     -0.57346579      1.41173358e+00    3.52582946e+00    1.15769584e+01     -143.83448194    -50.44291838    -77.08373745  
H     -0.43010133      0.08088148     -0.56354981     -3.74073656e+00   -1.67326987e+01    3.85360381e-01      -17.26103873     -8.78786242    -11.13880773  
H     -0.46002428      0.02722588     -0.52157454     -4.47420909e+00    2.91068071e+00    3.31783609e+00      -21.76702068     -8.50157999    -13.88561019  
H     -0.40866529      0.03952982     -0.50494231      9.68611167e+00   -1.06624350e+01    3.65607065e+00       19.14104564     13.01773374     10.45123735  
H     -0.49235645      0.03926687     -0.48784039     -3.61451601e+00   -1.75306913e+00   -5.72893782e+00        4.18757213      4.18876035      3.05708021  
H     -0.44736139     -0.01500397     -0.46777708     -8.31109423e-02   -4.81078209e+00   -8.40313855e+00       13.71541622      9.16784757      8.21299835  
H     -0.46107411     -0.15271281     -0.51199564      5.44517165e+00    9.28638448e+00    1.10914522e+00     -206.95924945    -82.24935043   -107.95491373  
H     -0.34122731     -0.17603003     -0.65067498      4.15607590e+00    1.38872130e+00   -1.10657211e-01     -397.65946747    -62.11726558     30.39331655  
H     -0.22142310     -0.17011683     -0.66502648      5.07116708e+00    4.87444822e+00   -2.49966452e+00      -50.06757723     -0.52120051     11.29857182  
H     -0.08403394     -0.21664105     -0.65141774     -2.56260177e+00    1.43515689e+01    2.76129489e+00       43.84596847     -2.37971248     -7.12120553  
H     -0.08027996     -0.18550604     -0.70197332      5.29644557e+00    2.83893137e+00   -3.79953967e-02      -22.75670676      0.44716709     -0.46933065  
H     -0.13881344     -0.02026577     -0.70498335     -6.25290134e+00   -1.03403604e+01    4.07694302e+00      -53.37361012     -6.67943380     -0.76793051  
H     -0.14260399     -0.01777078     -0.61134180     -1.69264273e+00   -3.41030026e+00    7.18146476e-01      -39.02804386    -13.50087854     -9.21804156  
H     -0.15899934     -0.12001205     -0.70093047      6.86738807e-01    9.45471757e+00    2.56967835e+01      -71.13987939    -10.63049752     -7.55277380  
H     -0.22348981     -0.12976081     -0.54676120      9.88934857e+00    9.66763004e+00    6.55832316e+00     -169.23954736    -90.71962685   -120.54409109  
H     -0.29856716     -0.04871427     -0.52414679      5.42449517e+00   -7.12291157e+00   -3.61658751e+00      -59.81814358    -50.14257803    -44.39763716  
H     -0.29159322     -0.09160017     -0.59148014      1.03499845e+01    3.48448980e+00   -2.93850497e+00      -56.18536404    -41.54371351    -49.56179806  
H     -0.57384147     -0.41028679     -1.01466757     -1.84618282e+00    7.53020940e+00   -7.12010295e+00       30.05329370     46.94496936     45.99050595  
H     -0.61026079     -0.50188276     -0.99990604     -4.99114276e+00   -1.16155977e+01    9.95399822e+00       -3.48952972     -5.94526723     -4.82102469  
H     -0.55542366     -0.51014572     -1.04993707     -1.00944412e+01   -6.66962945e+00    1.90131231e-01      -30.55838295    -49.49222021    -51.01511825  
H     -0.61930770     -0.53326212     -0.98423544     -5.71657420e-02    2.45890365e+00   -9.15306718e+00      -29.54279311    -50.70299605    -37.97819360  
H     -0.58890822     -0.47600184     -0.96341288      2.85318977e+00    1.44886550e+00    1.99175473e+01       -5.90319183     -7.32390114     -6.56692342  
H     -0.69761725     -0.33034875     -0.94861953     -3.43052365e+00   -3.83324339e+00    4.67762715e+00      -15.93025955    -14.61051289    -11.10593520  
H     -0.69405821     -0.24996275     -1.05772050      1.40908695e+01   -2.94059887e+00   -8.74903321e+00      -32.38741248    -31.91697551    -25.46820633  
H     -0.75816153     -0.34281873     -0.95732000      8.18670779e+00   -7.90079527e+00   -2.98348105e+00      -52.41006792    -52.85355139    -23.59558052  
H     -0.76670870     -0.40463954     -0.96774390     -1.12686494e+01    3.99613337e+00    1.67219513e+00      -52.88124866    -55.27167604    -29.67758062  
H     -0.90215449     -0.38330935     -0.90203067     -2.57778106e+00   -1.25817470e+00   -2.73463691e-01      -50.52793405    -59.58167335    -24.49224253  
H     -0.90705089     -0.35514210     -0.88529147      5.59007903e-01    1.00199211e+00    5.16469082e+00      -23.19579519    -21.91378841     -6.54089749  
H     -0.94833659     -0.25088868     -0.91160667     -3.60861820e+00   -8.45525305e-01    3.04816266e+00       23.64113471     18.87912495      9.38035726  
H     -1.01693702     -0.20849440     -0.83229558      5.03644023e+00   -3.80063795e+00   -1.08322682e+01      165.98135691     78.99067639     58.55459218  
H     -1.05748192     -0.27489254     -0.99379438     -1.38087613e+01   -4.60876037e+00   -6.11933782e+00       24.00997036     16.78110243     17.61468792  
H     -1.11112956     -0.26332714     -0.95157904     -1.11859458e+01    1.49930090e+01   -6.41106141e+00       -2.92150305     -1.64913910     -1.92934885  
H     -1.00645708     -0.22683902     -0.84955012      4.46758921e+00   -1.37927185e+00    1.24748036e+01      144.12354923     50.48725139     77.41985613  
H     -0.98311588     -0.19909164     -0.92341899     -2.34438699e+00   -2.98469633e+00   -1.58774459e-01       17.49529215      8.83147804     11.43407614  
H     -1.02981700     -0.19521329     -0.88574737     -3.11064967e+00    8.76608980e-02    4.53465661e+00       21.91870595      8.54793496     14.06662952  
H     -0.99353687     -0.35921596     -0.82243438     -1.59890038e+01   -6.54934496e+00   -7.49673119e-01      -18.95656206    -12.95784272    -10.22607094  
H     -0.96167155     -0.43929365     -0.82401085     -9.06019680e+00   -3.89138628e+00    1.07536620e+01       -3.97500599     -4.11497910     -2.80367012  
H     -1.01754567     -0.39824716     -0.80571869     -1.85377053e+00   -1.46138069e+00    3.90503793e+00      -13.45678862     -9.07974143     -7.91796657  
H     -0.94224101     -0.34395061     -0.76352563     -4.10456079e+00   -4.51537766e+00    1.16981834e+01      207.25890815     82.37431368    108.34928649  
H     -0.85674900     -0.25661638     -0.61160676      3.78163476e+00    5.70853114e+00   -1.42466345e+01      398.05683378     62.27064646    -29.90028100  
H     -0.89495077     -0.17924850     -0.52009983      1.97359406e+00    1.28849608e+01    5.49090056e+00       50.73145697      0.83377196    -10.42976147  
H     -0.87767279     -0.17062771     -0.51365787      3.23110758e+00   -4.25438961e+00   -5.44715598e+00      -42.93537097      2.75562767      8.25575235  
H     -0.79551028     -0.17471492     -0.72963817      8.72027022e+00   -1.01464860e+01    1.60758343e+00       23.47879862     -0.20168083      1.51191891  
H     -0.82030008     -0.10617151     -0.71981788      1.23281071e+01    5.24305505e-01   -1.29018771e+01       54.01313943      6.86807173      1.65644595  
H     -0.78440509     -0.23986137     -0.76907958      1.75003524e+00   -1.50931343e+01    6.77589211e+00       39.72571036     13.75184419     10.18429850  
H     -0.81988642     -0.21914760     -0.77358554      7.95172620e-01    1.38150365e+01   -3.97753374e+00       71.51470126     10.75986921      8.07508118  
H     -0.65933179     -0.36313505     -0.85806162     -3.91393890e+00    9.65351670e+00   -9.06249444e+00      169.72384902     90.86741904    121.26673988  
H     -0.73779453     -0.41589651     -0.85140044      1.14722647e+01    2.46918218e+00    4.21047404e+00       60.11459547     50.22066159     44.83141891  
H     -0.72597833     -0.41227286     -0.97525770     -1.02055231e+00   -1.28919066e+00    4.49890067e+00       56.38380623     41.59741975     49.84571513  
H      1.20815399      0.22955338      1.69242396      1.71200971e+01    9.04519654e+00   -2.28421300e+00       -0.15236224     -0.03156257     -0.23124402  
H      1.26322818      0.20694592      1.64898700     -5.20723179e+00   -1.07405345e+01   -9.29584467e+00       -0.15254806     -0.03981704     -0.21612140  
H      1.25401886      0.18209021      1.56313880      5.47232282e+00    2.16633385e+01    2.77129668e+00       -0.23374344     -0.07066886     -0.33414100  
H      1.06985221      0.16437681      1.45470835      2.19030654e+00    9.74443834e+00   -1.63696459e+00       -0.47436982     -0.15946205     -0.68936262  
H      1.14567439      0.18312837      1.48737052      4.88081235e+00   -8.85795989e+00    7.60069205e+00       -0.41797462     -0.11100527     -0.60724899  
H      1.21507164      0.22443154      1.42765587     -4.07439085e-02   -8.40631082e+00    2.47738676e+00       -0.39828079     -0.07972505     -0.52593665  
H      1.27905662      0.32231446      1.38497489     -2.95472328e+00    5.24379133e+00    5.10023641e+00       -0.29714537     -0.06170833     -0.38375728  
H      1.27781650      0.13302378      1.43153402      2.40363537e+00   -7.29406883e-01   -8.08462134e-01       -0.31643062     -0.05991148     -0.38438214  
H      1.23411940      0.13598479      1.38454573     -1.09984831e+01   -3.09621395e+00   -5.09768986e-01       -0.38530986     -0.08669408     -0.46680116  
H      1.17427731      0.13740142      1.29725779     -1.38217095e+01   -7.49608829e+00    2.79052701e+00       -0.51277194     -0.10472329     -0.55787765  
H      1.09106642      0.10991582      1.23718646     -6.07983506e+00   -5.61841864e+00   -4.15344263e+00       -0.70353348     -0.11745325     -0.79805228  
H      1.17769712      0.20518380      1.25739462     -9.03287204e+00   -4.67506084e-01    8.32002596e+00       -0.43684328     -0.05362679     -0.48845832  
H      1.12523780      0.22197737      1.28638159      5.81742323e+00   -6.14136649e+00    7.46052974e+00       -0.46641941     -0.06020008     -0.53888759  
H      1.08242116      0.26057285      1.26151544      2.34967187e+00   -1.43204048e+00    6.92703359e+00       -0.37810319     -0.05984133     -0.42331513  
H      1.16508801      0.23077616      1.30851375     -7.85204643e+00   -9.15773851e+00    7.96304150e+00       -0.30824967     -0.04712170     -0.32500844  
H      1.20870842      0.20337616      1.43874597     -5.28080451e+00   -2.21252360e+00   -1.07289834e+01       -0.28906729     -0.04433301     -0.33611869  
H      1.13843895      0.31198682      1.52962981      6.39206471e+00    5.11273367e+00   -3.57627850e+00       -0.23425342     -0.04361562     -0.29526841  
H      1.17437919      0.49355404      1.64557486      2.35460974e+00   -4.37301973e-01   -2.09106828e+00       -0.15168526     -0.04635498     -0.18101934  
H      1.15336392      0.43916793      1.60546909      7.06377670e-01    8.75119460e+00   -5.30918117e+00       -0.18448358     -0.05989102     -0.22516642  
H      1.13394094      0.46760127      1.54726743      4.90984064e+00    1.53988545e+01    1.02695023e+00       -0.21256614     -0.07378125     -0.25341009  
H      1.15553396      0.45409431      1.48798453      1.51894377e+01   -4.49081880e+00   -1.26450534e+00       -0.25862760     -0.08810614     -0.29503179  
H      1.07217723      0.48686765      1.51341995      5.28048410e+00    6.75634093e+00   -8.54208272e+00       -0.29965870     -0.12496325     -0.39437276  
H      1.08517347      0.43475423      1.46423856      3.04552451e+00   -8.01492388e+00    3.42368590e+00       -0.39736631     -0.15338089     -0.49303556  
H      1.01427021      0.55975639      1.44558233     -5.78003828e+00    1.28530519e+01    8.39528541e-01       -0.66387974     -0.31257145     -0.86881036  
H      1.02604219      0.47374936      1.43155321      7.53346896e+00    3.50657554e+00   -9.71664180e+00       -0.91059750     -0.37591518     -1.13454682  
H      0.99280494      0.33041427      1.44542437     -6.17456692e+00    9.30120867e+00    2.17264892e+00       -0.72209187     -0.24548626     -1.04258825  
H      1.04145951      0.39113749      1.44703219     -1.14086066e+01   -1.04460841e+01   -4.35646870e+00       -0.63952931     -0.18863793     -0.88851545  
H      1.03891690      0.41189542      1.41211965     -6.61845336e+00   -2.99127899e+00   -8.18922546e+00       -0.69766650     -0.25096565     -0.96625694  
H      1.13456945      0.38358764      1.47730788      7.46224548e+00    9.38149243e+00   -4.71727652e+00       -0.37482187     -0.12937169     -0.52230739  
H      1.11342105      0.26719672      1.48533485      2.39756920e+01    1.51106074e+00   -5.16434572e+00       -0.48430166     -0.14779219     -0.72264879  
H      1.11220494      0.27321346      1.60244713      2.61570706e+00   -4.54490647e-02   -2.03257749e+01       -0.29645190     -0.07808356     -0.43378175  
H      1.20183354      0.25489564      1.61271961      8.57376621e+00    8.20025910e+00   -7.95112629e-02       -0.19844220     -0.05370624     -0.28391708  
