96
100000  xi=   1.04855473  Mean pot=  -101.18339256  Cent pot=  -103.49937792 kcal/mol
H     -0.50638858     -0.54594284     -0.65916372     -1.59954032e+01    2.07085523e+01    1.31950896e+01        8.93442376     11.54335347     12.50702312  
H     -0.56065620     -0.58799605     -0.64743416      1.06977725e+01    2.05294989e-01    2.14351481e+00        7.61430722      9.43088804      9.33524678  
H     -0.46665546     -0.63802925     -0.62820860      9.17239016e+00    2.76338093e-01    2.46213881e+00        7.58530368     10.55101591     10.69822252  
H     -0.56012609     -0.65971991     -0.50460132     -5.55128582e+00   -5.97184769e+00   -6.87019426e+00        9.58455981     12.16734445     11.84363189  
H     -0.51983754     -0.62711609     -0.63138164     -5.84403007e+00    2.09230610e+00    1.04210204e+01        3.14358654      6.17508453      9.13374584  
H     -0.58136281     -0.58892121     -0.64677761      4.59159530e-01   -1.67962087e+01    8.81887618e+00        4.17453940      7.65749123     11.03702846  
H     -0.56429616     -0.64052023     -0.69679125      1.53951760e+00    2.06844921e+00   -8.82699107e+00        5.35485792      9.05647342     10.79362716  
H     -0.48703777     -0.63853915     -0.65653425     -1.12574159e-01    1.20059416e+01    2.95857192e+00        0.14078862      4.18793360      6.97391311  
H     -0.43158800     -0.67744821     -0.72239340      4.76618308e+00    5.97207706e-01    1.09644521e+00        1.80348122      6.59572178      9.81372455  
H     -0.36832634     -0.77868510     -0.68666162     -4.31896665e-01   -2.83164364e+00   -7.68350521e+00        3.19801492      7.58518844      9.78377720  
H     -0.32534676     -0.73273972     -0.80456233     -5.72176844e+00   -4.07682161e+00   -2.00166910e+00        2.93930119      7.83743632      9.88289435  
H     -0.29022023     -0.66062115     -0.74457301     -1.05570063e+01    1.02582900e+01   -1.35275861e+01        4.63492688     10.96973559     13.46392304  
H     -0.34700766     -0.57998999     -0.78995580      6.71983739e+00    3.42706765e+00   -3.84691593e+00        4.95849682      9.11025003     12.54003174  
H     -0.43455998     -0.48061805     -0.88930353     -2.01489280e+00   -6.12921157e+00    9.77523031e+00        1.40381332      3.89775825      6.22096908  
H     -0.41591583     -0.55893227     -0.93043530     -7.89310999e-01    2.09946500e+00    1.15022860e+01        0.82625750      3.32497585      4.88073547  
H     -0.38619644     -0.46954862     -0.89654191     -3.14330312e+00   -6.68994748e+00   -3.54088024e+00        3.12897573      5.59859051      9.26956679  
H     -0.41331985     -0.66284822     -0.84672520      9.93061519e+00   -1.09248386e+01    7.47983105e-01        0.83590884      4.48298678      5.62236641  
H     -0.41397371     -0.58493744     -1.02405391      7.63357381e+00   -7.75891694e+00    8.98168532e+00        3.18201685      5.33456362      8.50898434  
H     -0.48540762     -0.61253977     -0.98673842     -6.28815362e+00    2.62805144e-01   -7.80554521e+00        2.23436847      4.31744041      5.97825552  
H     -0.52673476     -0.58363472     -1.03169586     -3.48248169e+00    2.95800906e+00   -8.33886044e+00        1.98198438      4.22833917      5.71598994  
H     -0.53173155     -0.70591536     -1.05003425     -1.22369649e+00   -2.22667123e+00    7.27134909e+00        3.36327534      4.68638567      7.00206500  
H     -0.47975204     -0.65040022     -1.14163541     -2.46393478e+00   -4.59470610e+00   -5.62215698e-01        2.81647123      3.99591986      6.73597666  
H     -0.59133216     -0.70723300     -1.10098206     -1.19151159e+01   -9.56493915e+00   -7.98217122e+00        4.07489745      4.62149973      7.39192847  
H     -0.55418780     -0.64692436     -1.14041764      9.44027786e+00    4.47967726e-01   -3.24476502e-01        4.21112970      3.83441031      7.67324102  
H     -0.65781767     -0.63099589     -1.05740889      1.47296588e+01   -2.85154824e+00    2.90237547e+00        4.82615227      3.84840453      6.73408248  
H     -0.54631738     -0.60465565     -1.03806788     -9.87619821e+00   -3.98353572e+00    2.82637789e+00        5.25495526      4.37517469      7.63236824  
H     -0.62318115     -0.68293788     -0.96527642     -6.38355224e+00   -4.68634988e+00    4.91783761e+00        4.07750488      4.34497607      6.32719715  
H     -0.60259914     -0.66774350     -0.84286258     -2.20214475e+00    6.42695486e+00    2.73830337e+00        4.45324831      4.94847517      6.33698233  
H     -0.47265296     -0.60531466     -0.93865499     -6.50276992e+00    1.42783863e+01    6.41169221e+00        3.21833039      5.28016353      6.91354422  
H     -0.47886878     -0.64485171     -0.78405887     -4.38158630e+00   -3.15561070e+00   -2.15692123e+00        6.02491095      7.69254313      9.76952363  
H     -0.54552421     -0.60935584     -0.74906198      5.69391165e+00    6.72639728e+00   -1.21862728e+01        4.72061422      6.98767386      8.14998832  
H     -0.51866323     -0.49332396     -0.74537550     -6.51478937e+00    5.04790587e-01   -7.38269659e+00        8.11938187     10.91434852     13.87973617  
H      0.40072733      0.13307299      0.15347893     -1.30920187e+01   -7.59110051e+00    3.25600311e+00       -7.86980195      5.53644820      3.54765945  
H      0.38119907      0.23573165      0.13660772      2.25194445e-01   -4.12645079e+00    6.80984634e+00       -9.94691550     19.88423585     22.62581350  
H      0.36292031      0.26126936      0.11313210     -2.21212438e+00   -6.41304645e+00   -7.01778028e+00       -9.19996381     13.47707483     31.25897306  
H      0.42004835      0.24884882      0.13585084     -1.93047586e+01    1.67845502e-02    7.79781607e+00       -7.00350467     -3.05576866      1.26519891  
H      0.33299259      0.22400470      0.03883159     -3.19822090e+00   -5.55490266e+00    5.88087403e+00       18.26255599    -17.99390777    -65.09490931  
H      0.28256819      0.16754463      0.08224586     -1.48386737e+00   -3.69879630e+00    3.91404049e+00       20.92923748    -20.32203560    -54.90213978  
H      0.24047207      0.29273467      0.10137632      4.42937355e+00    7.58395801e-02    4.64142711e+00        8.51469749    -10.43862848    -30.67744011  
H      0.24397770      0.25376265      0.04320368      3.55585255e+00   -1.90463591e+00   -1.34552706e+01       23.25422508    -22.51124230    -64.41379739  
H      0.29480898      0.32910893     -0.01614920     -8.39777315e+00   -4.58327950e+00    5.55095546e+00       32.55805790     -8.67556893    -74.17972139  
H      0.27147590      0.28366994      0.01427653     -1.11922152e+00    7.41015865e+00    4.15101940e+00       13.07192927     -6.30417845    -62.99705788  
H      0.19100045      0.30625241      0.08473840     -4.97888753e+00    7.17891762e+00    2.47846065e+00        3.99261428     -6.10720330    -28.57269419  
H      0.26909189      0.23719868      0.17060278     -1.19172307e+00    1.06938213e+01    1.20484145e+01      -16.51777773     10.76321515     35.07365795  
H      0.29424269      0.20979933      0.17496573     -5.73496007e+00   -5.53241350e-01   -2.70592960e+00       -8.73086675      6.55683832     16.13579651  
H      0.29958827      0.11431512      0.15003541     -1.09310605e+00    2.77033689e+00    4.20306163e+00       14.16900943    -35.44480029    -51.91854807  
H      0.27057710      0.01063549      0.07994177     -6.47900160e+00   -6.28636445e+00   -2.37910815e+00        6.12724291    -35.55396046    -47.40385633  
H      0.29456318      0.08765293      0.12655087     -2.82660270e+00   -5.21225506e+00   -5.28038935e+00        5.99622438    -22.34532096    -31.96554095  
H      0.36776261      0.07513086      0.04316195      2.43794321e+00   -4.64181562e+00   -3.21967294e+00       20.46881112    -41.06828496    -53.06449473  
H      0.35038220      0.08226618      0.19437535     -9.21517088e+00   -5.51737894e+00    1.18758081e+01        9.92302295    -20.04584763    -22.76582867  
H      0.28194775      0.00154036      0.16654094      2.48165044e-01    1.72043692e+00   -6.89578665e+00       11.33924181    -49.47500007    -43.60873556  
H      0.32170569      0.00110858      0.09320908     -1.37285424e+01    7.69531472e+00   -7.73671860e+00       19.73241822    -56.23173316    -49.17813065  
H      0.29826836      0.01266361      0.05516001     -8.63984545e+00    1.01880528e+00   -8.31126144e+00        5.76131353    -24.81347688    -34.70901260  
H      0.31923795     -0.01152915      0.12536634      7.31706021e-01   -1.73007165e+00   -6.20267708e+00        7.90538848    -27.97362426    -32.10046281  
H      0.39328412     -0.09404938      0.07308760     -3.27663517e+00    4.05781588e+00    9.50623184e+00       10.74787639    -26.72412839    -27.80479964  
H      0.46612698     -0.17725671      0.11962036     -6.95135388e+00    8.26723154e+00   -4.70063494e+00       10.67615667    -25.26591098    -26.17660027  
H      0.48373474     -0.17733066      0.09217851     -1.57710548e+00    6.83391830e-01   -1.23474497e+00        7.28753286    -35.37530888    -29.81291478  
H      0.56667235     -0.01886338      0.06148414     -1.06521826e+01    9.27264039e+00    5.69807375e+00        1.54350898     -8.86556256    -13.15323162  
H      0.52901534     -0.13128620      0.02148873     -2.85877717e+00    5.40208323e-01    1.43625424e+01       21.44053656    -51.72386978    -55.08844642  
H      0.48267787     -0.02743967      0.09811717     -1.93450690e-01   -6.34307151e+00    8.33193650e+00       10.30259572    -43.49379407    -43.94417208  
H      0.35360829     -0.12572274      0.13920776     -1.12762107e+01    1.04287924e+01    5.80122577e+00        6.35413054    -51.95725710    -35.99104051  
H      0.31661144      0.02405459      0.27798407      4.06404963e+00   -5.04493311e+00    8.69035764e+00       -4.00485174     26.04172841     13.97742968  
H      0.30380173      0.02614910      0.15166584      7.96195368e+00   -4.10663852e+00   -8.51902108e+00        3.28416261    -31.27912031    -27.20928062  
H      0.27579683      0.16103023      0.23195441      5.71844367e+00    1.02568314e+01    7.82396149e+00      -24.52635048     52.38309144     36.65231636  
H      0.17615681      0.66746416      0.60379598      5.03335574e-01    1.60303900e+01    8.75842965e+00       -1.06462181    -17.07980167    -16.05468256  
H      0.25509274      0.70147935      0.65447285     -9.06163848e-01   -3.67681667e+00    3.15858920e+00        2.33260828    -29.31512389    -31.96106029  
H      0.26144928      0.57510686      0.73601725      9.62295386e+00    5.01825603e+00   -7.21620849e-01        1.61466013    -24.02809073    -41.95719558  
H      0.12929427      0.46916987      0.77858302     -1.45391805e+01   -5.49921327e+00    1.35586180e+01       -2.58105514     -9.11157579    -13.10883080  
H      0.11542858      0.46515402      0.87306857     -4.70491720e+00    3.17862890e+00   -5.15336992e+00      -21.40614253     11.81882325     55.96116347  
H     -0.00838082      0.45205896      0.84923821      1.93783396e+00   -3.21275333e+00    1.00373563e+00      -25.10377688     12.66454437     43.86511132  
H     -0.03741091      0.48560258      0.81788577      1.30787886e+01   -6.28746629e+00   -4.39442160e+00      -13.86955541      1.38215506     19.88381295  
H     -0.00598295      0.57502446      0.87061222     -7.98567897e+00    1.87448988e+00   -1.77674670e+00      -23.39501370     18.32330870     57.43988428  
H     -0.06781451      0.43766073      0.83350961     -4.48453986e+00   -1.14494665e+00   -8.65214321e+00      -34.36153912      2.07984715     64.36599684  
H      0.08874188      0.35874759      0.85889828     -4.45349697e+00    4.58979985e+00    6.69087845e-01      -16.26994419     -1.28100999     53.21328068  
H      0.04047224      0.41191999      0.84966759     -6.64813512e+00    3.45624634e+00   -1.52928075e-01       -6.93191548     -1.73023302     18.68979984  
H      0.04915022      0.47332086      0.79222753     -3.81207860e+00    8.86358656e+00    3.69226786e+00       11.88285084    -21.73295074    -48.53758099  
H      0.09838829      0.51270840      0.80044731      8.11927363e+00   -5.58970977e-01   -4.02639977e+00        3.77236993    -15.66708835    -28.67582825  
H      0.12456238      0.59899964      0.86322242     -1.27149541e+01    2.17400642e-01    1.01355668e+01      -15.57282275     31.54704204     45.69757899  
H      0.21415938      0.53271048      0.78675360      1.25186221e+01   -7.36910276e+00    5.85463473e+00       -6.95350041     32.22898462     42.52312085  
H      0.16595801      0.55027736      0.78713190      8.31157798e+00   -3.98904908e+00   -6.65467854e+00       -9.12520011     16.74673045     22.69597416  
H      0.13503180      0.61018718      0.73262945     -7.25227990e-01    1.56937688e+01   -4.09125407e+00      -21.30471996     36.58529818     47.44212831  
H      0.04469987      0.57455248      0.72736841     -4.04532578e-01   -8.36503627e+00   -1.17884794e+01      -13.10503980     14.71128402     14.25684433  
H      0.13126250      0.64584263      0.73241497     -1.98469075e+00    1.64242390e+00    2.04640383e+00      -13.57361028     45.15755966     37.63048004  
H      0.09333631      0.65986605      0.67096181      1.47929412e+00   -6.11334609e+00   -6.94321317e+00      -21.71440260     52.00339399     43.46214071  
H      0.16065758      0.47762982      0.70257717      2.03305168e+00    2.55521629e+00   -9.08645215e+00       -9.12458887     20.12709121     27.70694760  
H      0.14255132      0.51355494      0.71249113      6.27764937e+00    1.54078800e+01    8.84885581e+00      -10.72185972     23.97770440     25.36448615  
H      0.12792294      0.44005599      0.60677875     -1.00677809e+00    2.16500811e+01   -6.15952992e+00      -14.82277384     22.10262866     20.41287118  
H      0.18518336      0.35712661      0.63827355      1.07700974e+01   -1.95830993e+00    1.28959955e+00      -14.88728637     21.43150067     18.50335925  
H      0.31533542      0.44286106      0.58960632     -1.30989830e+01   -1.35516184e+01   -8.13559844e-01      -12.11368512     31.52690434     23.07883230  
H      0.33137306      0.40002496      0.65216255      5.36038660e+00    2.11568494e+00   -2.89231557e+00       -6.79846424      4.49038787      5.52086338  
H      0.26899254      0.45953096      0.64636708     -1.93300737e+00   -7.05472690e+00   -1.07677731e+00      -25.51804144     47.37889371     48.76124927  
H      0.32170309      0.56377414      0.69047732     -6.28713647e+00   -5.69615509e-01   -2.70091224e+00      -14.75584403     38.54531890     37.60718975  
H      0.26863427      0.58314930      0.63169421     -9.42929034e+00    7.17456378e+00   -6.67077477e+00       -9.57246093     46.67709357     29.07749629  
H      0.29071296      0.62576896      0.65309126     -2.79948441e+00   -7.96672969e+00   -2.58503735e-01       -2.02005920    -33.73427154    -23.74695330  
H      0.22178985      0.64165985      0.68048711     -4.26568039e+00    1.37534814e+01   -1.12536058e+01       -8.00477683     24.29144645     19.05929230  
H      0.08824578      0.67992187      0.62116452      3.30837019e+00    2.51049043e+00   -4.39479848e-02       16.40696861    -63.29743996    -50.53205253  
