96
100000  xi=   0.44035780  Mean pot=  -107.11594887  Cent pot=  -109.41293307 kcal/mol
H      0.73533278      2.28299743     -1.80534043      1.59373334e+00   -9.64799223e-01   -1.46351105e+00      -34.37651437     40.75308421      8.20643899  
H      0.80514333      2.31381205     -1.76745303     -1.28856477e+01    1.55998235e+00    1.12285690e+00      -26.92080017     15.86697258      3.50690110  
H      0.88162547      2.31081316     -1.70030899     -7.32090981e+00   -5.47401652e+00    4.62970998e+00      -12.00859712      7.64118432     -0.08231426  
H      0.81406607      2.30277848     -1.68133561     -6.04465305e+00   -6.45955665e+00   -4.90374479e+00      -19.19852724     13.44049091     -0.30435356  
H      0.87677677      2.20993587     -1.63348719      2.59977558e+00    1.37703210e+01    5.95202128e+00       47.32309954    -42.89311896      7.40351206  
H      0.84139396      2.37264382     -1.65751051     -3.58493355e+00    8.55643392e+00    5.72005468e+00       49.55926587    -38.97100144      8.19286885  
H      0.79602697      2.48242613     -1.67438546     -4.98435524e+00    1.99567791e+00    3.16009939e+00       23.16245931    -21.19199006      9.96341834  
H      0.81830071      2.43543849     -1.64553057     -3.63304395e+00    2.03652275e-01   -1.03124608e+01       52.13497541    -41.84813591     19.62776176  
H      0.75936243      2.34685303     -1.63861843     -1.22362802e+01    6.26052551e-01   -3.01679482e+00       33.77894290    -35.05975778     12.89465628  
H      0.60259486      2.36417395     -1.62111994      1.80909886e+00   -1.76291506e+00   -5.32003300e+00       39.46607844    -47.21085819     12.40825639  
H      0.61739649      2.36863156     -1.67019796      8.95442413e+00   -2.66106376e+00    3.58057820e+00       28.17782476    -26.84920185      6.93535699  
H      0.50901098      2.33974311     -1.64921611      6.59328206e+00    5.49566699e+00    3.77616884e+00       36.92145624    -56.86814065     14.51918682  
H      0.35028382      2.32413875     -1.65246018      5.24966231e+00   -5.79535870e-01   -1.26624801e+01      -11.14518467     24.60706323     -1.63004329  
H      0.23799214      2.25192438     -1.69917921     -6.51217538e+00   -5.35350979e+00   -1.48161021e+01        5.21072171    -23.84136703      2.59147780  
H      0.27313241      2.22796483     -1.65940292     -1.86364377e+00    1.65694556e+01    5.14780362e+00       19.58865170    -56.25515566      4.82847012  
H      0.36880452      2.33732212     -1.59259720      3.34033991e+00   -4.97653694e+00    8.43475087e+00      -92.40662102    150.10309100    -32.24325187  
H      0.50205968      2.37474002     -1.52013248     -5.00742832e+00   -1.56668196e+01    8.31558265e-01       33.99263607    -40.84386996     21.50731295  
H      0.46994309      2.44854901     -1.48734435     -6.14503341e+00    4.55149750e+00    9.82567894e-01      -15.38042162     11.77680647     -9.33562756  
H      0.54335834      2.42238997     -1.44836049      2.58076577e+00   -1.49732931e+01    2.11230072e+00      -29.49132892     15.07409052    -15.57411257  
H      0.46306522      2.31454081     -1.38505795     -1.06078326e+01   -5.67295901e-01    1.22453276e+01       11.17983781    -10.51947260     10.05682633  
H      0.50456933      2.27633751     -1.42278122     -2.75998983e+00    1.74641422e+00   -5.66531742e+00       33.30182719    -29.26454915     18.36467393  
H      0.50287082      2.26534225     -1.52316843      2.82440386e-01    1.71702007e+00    2.96676689e+00      -47.43409134     42.52294710    -11.14307690  
H      0.61814038      2.29768083     -1.52571142      1.16775920e+00    7.86479659e-01   -9.54988436e+00      -20.47636037     17.34091740     -4.54890113  
H      0.69964005      2.35651352     -1.42080324      1.56605057e+00    1.09686171e+01   -5.39175860e+00       23.26724230    -15.84929374      9.75113987  
H      0.84293086      2.26112078     -1.47153564      4.37316191e+00   -4.78927950e-01   -8.33336066e+00       73.72582665    -57.29658927     15.32064149  
H      0.79421751      2.28616494     -1.61962242      1.51184410e+01    8.40689199e+00    3.15821159e-02       29.50881599    -28.84744005      6.63650332  
H      0.83432479      2.45425380     -1.61331211     -1.50208806e+00    7.24057111e-01   -6.09540393e+00       60.52486356    -37.92306963     10.92854570  
H      0.79946946      2.38043933     -1.52174119      5.90068554e-01   -5.55147524e+00    7.62424461e+00       42.91875800    -31.67866031     18.67635346  
H      0.78520541      2.33799391     -1.59928761      5.63812512e+00    3.37256962e+00    4.94127959e+00       39.81016169    -28.54156477     11.93170287  
H      0.75260033      2.23523935     -1.58793788     -3.11712249e+00    1.03590645e+01   -9.10305837e-01       -8.86497800      9.36724103     -2.66671002  
H      0.70412773      2.21261260     -1.64053981      2.37528153e+01   -4.56919698e+00   -1.79606096e+00       22.73196725    -24.21185567      0.11068642  
H      0.65761296      2.18926628     -1.77015033      8.68198351e+00   -5.10683417e+00   -3.60230470e+00       -6.00579109      8.34106362      1.04001091  
H      0.29733731      2.80223732     -1.70078102      4.84594525e+00    1.61479062e+00   -9.45595420e+00       34.37651868    -40.75305803     -8.20645720  
H      0.19926931      2.67091058     -1.68852725     -7.10400892e+00   -6.31240938e+00    4.01136843e+00       26.92080417    -15.86694483     -3.50691991  
H      0.26967875      2.70019988     -1.70450317     -6.67058742e+00    2.71315464e+00   -1.27128179e+01       12.00860156     -7.64115626      0.08229568  
H      0.22784998      2.71317569     -1.69062858      8.43231210e+00    1.05310784e+01   -9.28221012e+00       19.19853236    -13.44046198      0.30433492  
H      0.25102567      2.77710993     -1.73138370     -4.23290022e+00   -6.23922223e+00    1.09377471e+01      -47.32309356     42.89314884     -7.40353178  
H      0.18003712      2.89270307     -1.76684263      2.55255669e+00    2.73369748e+00    7.60190478e+00      -49.55926080     38.97103044     -8.19288755  
H      0.24214638      2.98918806     -1.91263982      1.20982894e+01   -7.90745618e+00   -3.74423387e-01      -23.16245353     21.19202007     -9.96343778  
H      0.17161485      2.95452601     -1.88899490      8.15592756e+00   -1.04227567e+01    1.78545851e+00      -52.13497066     41.84816317    -19.62777914  
H      0.20998654      2.91706056     -1.84833566     -8.22792213e-01   -2.21947030e+00   -7.30648333e+00      -33.77893702     35.05978768    -12.89467544  
H      0.07041800      3.00078524     -1.78843833     -1.77012376e+00    5.82517891e-01   -2.30038703e+00      -39.46607240     47.21088976    -12.40827623  
H      0.04807189      2.91111241     -1.81032518     -7.21235828e+00    2.13498692e+00    1.13066329e+00      -28.17781926     26.84923187     -6.93537555  
H      0.04931025      3.04779637     -1.82999171     -9.36499334e+00    2.17548684e+00    1.17165418e+01      -36.92144898     56.86817669    -14.51921002  
H      0.05705901      2.97153726     -1.69534476     -2.25713610e-02   -4.06036488e+00   -1.08282691e+01       11.14519161    -24.60702642      1.63001866  
H      0.07354300      3.00435723     -1.78096777     -4.62840115e+00   -2.70983708e-01   -5.32951622e+00       -5.21071358     23.84141142     -2.59150894  
H     -0.00197555      3.01802791     -1.72721591     -1.71827793e+01    1.24219802e+01   -3.73020515e+00      -19.58864432     56.25519700     -4.82849878  
H      0.05603592      2.84537564     -1.70173075      2.24318929e+00    7.07696933e+00    1.18623657e+01       92.40662733   -150.10305599     32.24322851  
H      0.00763355      2.96881890     -1.83295896     -1.62027207e+00   -1.07422642e+00   -3.76888339e+00      -33.99262890     40.84390478    -21.50733585  
H     -0.04334919      2.84157601     -1.79890212     -1.94863385e+00   -2.21641984e+00    2.73449361e+00       15.38042752    -11.77677334      9.33560520  
H     -0.02293194      2.71184100     -1.74741308     -8.22853811e+00    3.55016190e-01   -1.41222530e+00       29.49133403    -15.07405805     15.57409098  
H     -0.00329633      2.75335879     -1.80457588     -3.97830245e+00   -4.30609011e+00   -1.22971189e+01      -11.17982907     10.51951324    -10.05685261  
H     -0.06061201      2.77300130     -1.73445762      1.75551314e+00   -6.76660956e+00   -6.52576083e-01      -33.30181927     29.26458821    -18.36469966  
H      0.00525104      2.71143994     -1.64006753     -2.55513195e-01    4.73239746e+00    6.16640225e+00       47.43409796    -42.52291162     11.14305279  
H      0.08255971      2.75124977     -1.64469213      7.93715460e+00    5.95135638e+00   -6.62645938e+00       20.47636670    -17.34088350      4.54887861  
H      0.08847752      2.77282913     -1.67693783      4.72059389e+00    1.01428633e+01    5.60053646e+00      -23.26723490     15.84932962     -9.75116342  
H      0.09454774      2.84273275     -1.62705405     -3.69710464e+00    9.29466078e+00    2.68535714e+00      -73.72581938     57.29662428    -15.32066449  
H      0.22743457      2.84024532     -1.74709172     -9.10365217e-01   -1.24490479e+01    1.84817462e-01      -29.50880932     28.84747042     -6.63652363  
H      0.10428981      2.91167213     -1.74512949      6.32683767e+00   -1.09103799e+01   -6.93322166e+00      -60.52485827     37.92309889    -10.92856478  
H      0.16764776      2.84679219     -1.79668248      6.59456364e-01   -1.14561386e+01   -9.39400516e-01      -42.91875129     31.67869215    -18.67637426  
H      0.13833697      2.80176131     -1.79316407     -6.15529650e+00    2.16190515e+01    1.18959728e+01      -39.81015591     28.54159573    -11.93172356  
H      0.26357165      2.75197258     -1.73504317      8.86727417e+00    9.48958583e+00   -4.20892448e+00        8.86498475     -9.36720959      2.66668887  
H      0.16471395      2.78714380     -1.64316671     -8.18630070e+00    2.95747875e+00   -1.39182359e+00      -22.73196172     24.21188545     -0.11070684  
H      0.23343644      2.77837608     -1.69669535      2.54281981e-01    6.58429275e+00    1.28895516e+00        6.00579609     -8.34103489     -1.04003113  
H     -0.69257513     -5.23906237      3.59709333      1.74996915e+01    5.77345914e+00    1.96438861e-01       -0.00000431     -0.00002618      0.00001821  
H     -0.64688844     -5.25479242      3.54044653     -3.15050683e+00   -1.10483757e+01   -2.81242718e+00       -0.00000399     -0.00002775      0.00001881  
H     -0.65644828     -5.28221704      3.45456204      5.02099137e+00    1.94688672e+01    4.51262514e+00       -0.00000444     -0.00002805      0.00001858  
H     -0.84290257     -5.29277023      3.33186439      3.28180787e+00    8.93288989e+00    2.74181594e+00       -0.00000512     -0.00002894      0.00001864  
H     -0.76777216     -5.28150125      3.36583531      4.35733695e+00   -9.76630675e+00    9.97618508e+00       -0.00000598     -0.00002988      0.00001972  
H     -0.69302614     -5.23997767      3.31344033      7.46637675e-01   -1.02602432e+01    6.22048077e+00       -0.00000508     -0.00002900      0.00001870  
H     -0.63521526     -5.14665052      3.26061932     -2.75192540e+00    5.77245905e+00    8.24093990e+00       -0.00000578     -0.00003001      0.00001944  
H     -0.63004489     -5.34166559      3.32299798      2.29305139e+00   -2.18804214e+00    5.11044420e-01       -0.00000475     -0.00002726      0.00001738  
H     -0.68498329     -5.32989111      3.26589075     -1.06052701e+01   -2.00939416e+00    2.92848101e+00       -0.00000588     -0.00002990      0.00001916  
H     -0.74353332     -5.33892312      3.17667137     -1.47230833e+01   -8.81648103e+00    3.34132005e+00       -0.00000603     -0.00003157      0.00001985  
H     -0.82467129     -5.35656220      3.11608014     -5.19118405e+00   -4.91836184e+00   -1.10163616e+00       -0.00000550     -0.00003002      0.00001857  
H     -0.74974763     -5.25968849      3.11945611     -9.76622154e+00   -1.16853146e+00    9.56937433e+00       -0.00000726     -0.00003603      0.00002320  
H     -0.79969720     -5.24500485      3.15153178      6.53164298e+00   -6.72267840e+00    1.03800168e+01       -0.00000694     -0.00003682      0.00002463  
H     -0.84872169     -5.19807310      3.11677887      1.47008258e+00   -1.43281399e+00    8.73720575e+00       -0.00000814     -0.00004439      0.00003114  
H     -0.76483982     -5.23197427      3.17183694     -7.30524975e+00   -1.07165313e+01    1.09612134e+01       -0.00000739     -0.00004134      0.00002866  
H     -0.71497151     -5.25295743      3.31011981     -4.98438054e+00   -2.16078238e+00   -6.97967114e+00       -0.00000631     -0.00003501      0.00002336  
H     -0.78452044     -5.14971186      3.39570758      6.93886644e+00    2.13031003e+00   -4.08495460e-01       -0.00000717     -0.00003482      0.00002290  
H     -0.74196726     -4.96461037      3.52451224      2.85576212e+00    2.30447702e-01    2.04325725e+00       -0.00000590     -0.00003313      0.00002236  
H     -0.76936322     -5.01473313      3.47388952      5.97646218e-02    6.15630669e+00   -3.10489240e+00       -0.00000511     -0.00003247      0.00002160  
H     -0.77978074     -5.00029983      3.42499804      6.81477279e+00    1.46256023e+01    6.10795272e+00       -0.00000875     -0.00004064      0.00002628  
H     -0.75335691     -5.00855375      3.37179050      1.42593188e+01   -5.73777153e+00    5.49859293e-01       -0.00000792     -0.00003906      0.00002573  
H     -0.83929091     -4.98650664      3.40108204      6.59685656e+00    5.07177386e+00   -4.86338341e+00       -0.00000662     -0.00003548      0.00002411  
H     -0.81342463     -5.04688331      3.37238494      1.87156416e+00   -7.65028453e+00    5.24061670e+00       -0.00000632     -0.00003390      0.00002252  
H     -0.89032029     -4.91892229      3.35820882     -5.01337355e+00    9.49845146e+00    3.62097439e+00       -0.00000740     -0.00003588      0.00002355  
H     -0.87305673     -5.01736115      3.36502321      7.51845983e+00    4.78700478e+00   -6.75069467e+00       -0.00000727     -0.00003501      0.00002301  
H     -0.90468204     -5.15626586      3.38058860     -6.36207329e+00    6.04003064e+00    3.52052272e+00       -0.00000668     -0.00003036      0.00002031  
H     -0.85628077     -5.10115619      3.38061423     -1.01571010e+01   -1.00818178e+01   -1.47743895e-01       -0.00000529     -0.00002926      0.00001908  
H     -0.85514452     -5.07303498      3.35015733     -7.81618441e+00   -4.48134031e+00   -7.38308631e+00       -0.00000670     -0.00003184      0.00002080  
H     -0.76795441     -5.09528580      3.39524300      9.46958911e+00    7.65604933e+00    1.64768400e-01       -0.00000579     -0.00003095      0.00002069  
H     -0.78547822     -5.21291325      3.40345858      2.41928114e+01    9.83744544e-01   -2.54631047e+00       -0.00000675     -0.00003143      0.00002115  
H     -0.79305954     -5.19119155      3.51066432      3.95122551e+00   -3.08419575e+00   -1.65490006e+01       -0.00000553     -0.00002978      0.00002043  
H     -0.70678011     -5.21655467      3.51276564      8.96630250e+00    8.91248364e+00    3.79956721e+00       -0.00000500     -0.00002873      0.00002022  
