3
100000  xi=   0.55333740  Mean pot=  -105.51543263  Cent pot=  -109.31682453 kcal/mol
H      0.25714324      1.63176199     -1.54253640       0.19765133
H     -0.16699382      2.13779118     -1.92495883       0.17649447
H     -0.09014942     -3.76955318      3.46749523       0.19079074
3
200000  xi=   0.54384262  Mean pot=  -106.54133813  Cent pot=  -109.16476675 kcal/mol
H      0.03533501     -1.81547740      1.40075270       0.21715639
H     -0.01883252     -2.52490021      1.46188099       0.22733561
H     -0.01650249      4.34037761     -2.86263369       0.20569268
3
300000  xi=   0.55002276  Mean pot=  -107.11477630  Cent pot=  -109.48732950 kcal/mol
H      0.46258900     -1.85914020     -1.35888275       0.15026332
H      0.81119357     -1.77721439     -2.00256923       0.17968857
H     -1.27378256      3.63635458      3.36145199       0.22148124
3
400000  xi=   0.56092572  Mean pot=  -106.42087865  Cent pot=  -109.14660705 kcal/mol
H      2.29767663      0.78227077     -1.12790499       0.18136546
H      2.13601981      0.93638083     -0.38923660       0.18791788
H     -4.43369644     -1.71865160      1.51714159       0.18015757
3
500000  xi=   0.55959378  Mean pot=  -106.88308047  Cent pot=  -107.62487434 kcal/mol
H      0.47904025     -0.31530299     -2.28485178       0.20778557
H     -0.02657908     -0.67402649     -2.56164725       0.26894982
H     -0.45246118      0.98932948      4.84649903       0.19162004
3
600000  xi=   0.54807120  Mean pot=  -107.88210528  Cent pot=  -109.43961545 kcal/mol
H     -1.49755239     -1.40626010      0.97666024       0.18198330
H     -2.18285649     -1.65671748      0.95691704       0.15540650
H      3.68040888      3.06297758     -1.93357727       0.21754935
3
700000  xi=   0.55970273  Mean pot=  -105.90343387  Cent pot=  -109.49792084 kcal/mol
H      2.13859679      0.92303023      0.96239526       0.10459204
H      2.35560078      0.70732415      0.28719476       0.20896152
H     -4.49419756     -1.63035438     -1.24959002       0.17677938
3
800000  xi=   0.54854442  Mean pot=  -106.29099718  Cent pot=  -109.49599967 kcal/mol
H     -1.26042065     -0.49725590      2.28440063       0.15679508
H     -1.45282156      0.15574443      1.99562229       0.15359307
H      2.71324220      0.34151147     -4.28002292       0.24172323
3
900000  xi=   0.54776895  Mean pot=  -105.98831722  Cent pot=  -106.56394609 kcal/mol
H     -1.92988160     -1.16766062      0.01823012       0.20396498
H     -2.37662814     -1.64287096      0.14514938       0.23119385
H      4.30650974      2.81053158     -0.16337951       0.22095981
3
1000000  xi=   0.55403848  Mean pot=  -105.83164385  Cent pot=  -109.49649953 kcal/mol
H     -1.44124198      0.65369882      2.09241193       0.21222391
H     -1.86375539      0.40829656      1.53697444       0.19313416
H      3.30499736     -1.06199537     -3.62938637       0.14848636
3
1100000  xi=   0.54301189  Mean pot=  -107.08720509  Cent pot=  -109.48761082 kcal/mol
H      2.24846655     -0.05112281     -0.19375020       0.21168265
H      2.97147177     -0.16833731     -0.11535018       0.12513623
H     -5.21993831      0.21946013      0.30910038       0.20626223
3
1200000  xi=   0.54227670  Mean pot=  -107.27283339  Cent pot=  -109.42564751 kcal/mol
H     -1.88376717      0.21918436     -1.24521844       0.13134895
H     -2.33031820      0.45746856     -1.80548146       0.19364857
H      4.21408537     -0.67665293      3.05069990       0.23973556
3
1300000  xi=   0.56042816  Mean pot=  -106.13976643  Cent pot=  -109.46758904 kcal/mol
H      1.60833067     -2.20421124     -0.35689739       0.19553246
H      0.92377626     -2.01784846     -0.60094575       0.18167916
H     -2.53210693      4.22205970      0.95784314       0.19324433
3
1400000  xi=   0.56080042  Mean pot=  -107.27462301  Cent pot=  -109.08205763 kcal/mol
H      1.28161347      2.23516313     -0.88135928       0.20675453
H      1.36397303      1.82804753     -0.30431322       0.17539574
H     -2.64558650     -4.06321066      1.18567250       0.19324434
3
1500000  xi=   0.55786202  Mean pot=  -105.84567855  Cent pot=  -109.19584913 kcal/mol
H     -0.63146004      0.00166193     -2.59471973       0.13032513
H     -0.70560061      0.65381407     -2.19316948       0.17696455
H      1.33706065     -0.65547600      4.78788921       0.20759144
3
1600000  xi=   0.54897244  Mean pot=  -107.17183491  Cent pot=  -109.49786215 kcal/mol
H      0.76400184      2.81234727     -0.03556119       0.16671789
H      0.88336606      2.08074769     -0.07410174       0.15420626
H     -1.64736790     -4.89309496      0.10966293       0.24211287
3
1700000  xi=   0.54862261  Mean pot=  -104.70124531  Cent pot=  -109.49001266 kcal/mol
H     -1.42184636     -0.89269558     -2.07756333       0.14759033
H     -1.60494354     -0.21488967     -1.85255010       0.17906548
H      3.02678991      1.10758525      3.93011343       0.20875180
3
1800000  xi=   0.55626860  Mean pot=  -107.02845135  Cent pot=  -108.43291967 kcal/mol
H      1.25508177      2.56114339     -0.42293341       0.17963443
H      0.90984760      1.98580436     -0.24740528       0.16829945
H     -2.16492937     -4.54694775      0.67033869       0.20608990
3
1900000  xi=   0.55212123  Mean pot=  -105.27789316  Cent pot=  -108.75586903 kcal/mol
H      2.72314029      0.19779140      0.83274689       0.17280704
H      2.28484596     -0.13929971      0.27414496       0.14415831
H     -5.00798624     -0.05849168     -1.10689185       0.18614981
3
2000000  xi=   0.53883338  Mean pot=  -108.30661396  Cent pot=  -109.36754837 kcal/mol
H     -1.32008091      0.14369202      2.64834062       0.20472272
H     -0.85787469     -0.08031503      2.13777753       0.14000444
H      2.17795559     -0.06337700     -4.78611815       0.11093395
