96
100000  xi=   0.13923069  Mean pot=  -106.24582883  Cent pot=  -109.49537195 kcal/mol
H     -1.23903885      3.99532985      0.48270024     -4.92067485e+00   -1.30347009e+01   -7.70069861e+00      -78.13033254    107.65034976     19.10628211  
H     -1.19329022      3.99257337      0.51422731     -9.70531581e+00   -1.01033611e+00    1.19888711e+01      -89.22212347     75.26448982     14.09483497  
H     -1.06678089      3.99393132      0.51952936     -2.74275289e+00   -4.46610149e+00    7.10435197e+00        1.40957678     -1.03183688     -0.27897923  
H     -1.11777851      4.08697374      0.49964489      1.02638125e+01   -4.56201019e-02    2.24770445e-01      -57.49900916     24.22679053     18.21213126  
H     -1.04811011      4.03121643      0.55254887      1.63622849e+00    1.57561471e+01    4.09993529e+00       -1.12622629      0.57788576      0.15724025  
H     -1.11753708      4.20206883      0.47387538      5.32986686e+00    6.78996123e+00    3.43232292e+00      -31.33785020     13.72429468      9.54374257  
H     -0.99823802      4.28809449      0.42700129     -2.86532218e+00   -1.18791843e+00   -3.25034913e+00       76.78625988    -27.89502051    -10.95535574  
H     -0.97482988      4.23917383      0.44578167      4.16407595e+00   -5.28496722e+00   -1.39275040e+01       94.08033136    -32.32888960    -13.54912644  
H     -1.05117411      4.13246121      0.47337735     -1.21819707e+01    7.52388848e+00   -1.63504825e+01       74.64975004    -37.96508640    -11.81988821  
H     -1.23104696      4.16522191      0.52659116      5.64464246e+00    1.89933782e+00   -3.18207903e+00       61.47756088    -36.86731742     -8.15283903  
H     -1.26854897      4.11518367      0.45865534      4.71758397e+00    4.72337276e-01    4.33254516e+00       46.15215655    -31.46529481    -11.17355227  
H     -1.33836257      4.13445428      0.49486262      6.10186784e+00   -2.54369730e+00    6.34754238e+00       45.22150731    -37.26547593     -6.49944129  
H     -1.38652051      4.12673563      0.62026189     -5.59074601e-01   -6.47701000e-01   -1.08906856e+01       47.27211870    -30.71101818      1.84149841  
H     -1.52674797      4.10184593      0.53962681     -2.76068205e+00   -2.06598175e+00   -1.73908965e+01      -36.97060898     33.43423039      0.13605419  
H     -1.52248648      4.03252343      0.57708683     -1.65286607e+01    1.60554850e+01    1.30657070e+01       33.51785053    -35.32452601     -1.21740470  
H     -1.48343822      4.07549809      0.66997724      3.86514317e+00   -1.55945137e+00    7.11225994e+00      -64.34519920     58.61231581     -9.67566183  
H     -1.42892443      4.09258517      0.68673251     -4.96909703e-01   -8.06779430e+00    4.61465082e+00       19.09842912    -21.31653675      6.19189009  
H     -1.54207727      4.11625743      0.75234221     -5.65901747e+00    6.94141596e+00    2.59007791e+00      -70.69442654     90.26862942    -44.28522429  
H     -1.41946576      4.06324354      0.72307507     -7.36287901e+00   -1.23102178e+01    5.04268490e+00      -57.45804463     46.41857554     -8.94370991  
H     -1.44613405      4.01810920      0.77210906      4.53205965e+00   -8.32844382e+00   -2.17754705e+00      -22.91120633     19.28746931     -7.52902398  
H     -1.46647022      3.94243092      0.74267324     -3.66077723e+00    1.94620838e+00    3.13030965e+00       12.58584612    -14.46400607      2.04504337  
H     -1.45893818      3.93960642      0.74481834     -2.33903401e+00    8.04045937e+00    4.67493914e+00      -36.54764964     41.14889994     -7.41875102  
H     -1.33557405      4.06683635      0.71971716     -1.12086678e+00   -3.80122659e-01   -3.81191650e+00     -155.06241263     99.96084670    -14.91925666  
H     -1.23190064      4.16135054      0.75219230     -4.04998752e+00    3.38188621e+00   -1.01044837e+01      -79.50174904     27.63278652     -5.19101037  
H     -1.07066570      4.14223319      0.75121683     -1.34017689e+00   -1.57457247e+00   -1.87341641e+00       54.29013948    -15.63802027      2.70896522  
H     -1.05846827      4.08432385      0.59170718      3.35939724e+00    9.18337299e+00    2.49180047e+00       47.94830139    -23.91642336     -0.72256476  
H     -1.13431431      4.22432466      0.55033796     -8.59709079e+00   -2.57766780e+00    1.14694859e+00        8.15619769     -3.99132004     -1.24260477  
H     -1.13687149      4.06322626      0.62609394      1.33730722e+01   -7.40144120e+00   -2.79447244e+00       38.32740181    -30.79387468      0.56686317  
H     -1.14252147      4.03997082      0.53912268     -1.85814074e+00    6.35897607e+00    5.72755027e+00       42.40335975    -29.83416737     -5.74311458  
H     -1.11544482      3.96939976      0.60714554      7.35847571e-01    6.00869832e+00   -1.01394989e+01       22.87075668    -16.65427350     -0.86683093  
H     -1.23386976      3.98802052      0.58315544      1.46486700e+01    9.20276225e-01   -2.34688253e+00      -28.30668976     22.74031749      5.82282569  
H     -1.24549487      3.92346205      0.45161712      9.05120313e+00   -4.72415896e+00    2.96533961e+00        5.09406129     -5.46406962     -1.96527950  
H     -1.60578142      4.50063891      0.57238483      1.08558239e+01    1.36163018e+01   -2.45283226e+00       78.13033154   -107.65034694    -19.10628178  
H     -1.67970143      4.40289190      0.59106796     -1.07962969e+01   -3.81122631e+00   -6.09465591e+00       89.22212246    -75.26448702    -14.09483462  
H     -1.65943189      4.42776359      0.63682512     -1.17509742e+01    1.64137100e+00   -1.44180867e+01       -1.40957776      1.03183966      0.27897959  
H     -1.71772088      4.33975509      0.68966954     -8.38711946e+00    4.04528016e+00   -1.36510124e+01       57.49900821    -24.22678774    -18.21213086  
H     -1.70155881      4.36651122      0.64378128     -3.77550793e+00   -8.28886189e+00    1.35562243e+01        1.12622532     -0.57788295     -0.15723986  
H     -1.73851157      4.47402227      0.66298921     -6.86765956e+00    4.43096095e+00    1.06545900e+01       31.33784928    -13.72429207     -9.54374221  
H     -1.84099839      4.59425368      0.54724077      9.46779416e+00   -4.79213841e+00    6.79669324e+00      -76.78626080     27.89502310     10.95535609  
H     -1.91277230      4.56147965      0.58086092     -1.43337249e-01   -4.99855754e+00    6.16973158e+00      -94.08033220     32.32889201     13.54912676  
H     -1.85688512      4.54222667      0.60095198     -1.38868991e+00   -9.18904649e+00    6.78647834e+00      -74.64975092     37.96508891     11.81988856  
H     -1.97342250      4.61041516      0.62504121     -6.11086298e+00   -3.14314968e+00   -3.67107780e+00      -61.47756173     36.86731980      8.15283939  
H     -1.94345113      4.57531376      0.62205084     -3.48189849e+00   -1.06835960e+00    1.14263558e+00      -46.15215741     31.46529724     11.17355264  
H     -1.98073347      4.66380988      0.58718710     -9.38439522e+00    1.01474218e+01    9.90664506e+00      -45.22150820     37.26547837      6.49944166  
H     -2.08365279      4.57963775      0.59310491      5.28391105e+00   -4.05727857e+00   -1.18311773e+01      -47.27211961     30.71102065     -1.84149802  
H     -2.03911968      4.56520734      0.54151236     -8.89194519e+00   -3.62998933e+00   -1.99571576e+00       36.97060804    -33.43422784     -0.13605380  
H     -2.08384899      4.62414445      0.59747613     -3.02207369e+00    1.28727679e+01   -1.08800906e+01      -33.51785146     35.32452850      1.21740509  
H     -1.96917807      4.51796058      0.59693597      1.21099433e+00    3.58930663e+00    1.39477683e+01       64.34519826    -58.61231330      9.67566219  
H     -1.93880876      4.66168793      0.52142323     -6.64080315e+00   -8.73984039e+00   -6.78958124e+00      -19.09843009     21.31653938     -6.19188973  
H     -1.90884140      4.58457292      0.52258955     -2.93721866e+00   -4.67215797e+00    1.89533996e+00       70.69442545    -90.26862657     44.28522467  
H     -1.93750762      4.48175351      0.64243856      1.20279434e+00   -2.37912335e+00   -3.58366142e+00       57.45804353    -46.41857262      8.94371032  
H     -1.97159837      4.46046375      0.59943227     -1.96217368e+01    3.39196361e+00    2.89438226e+00       22.91120521    -19.28746636      7.52902442  
H     -1.96701784      4.51767427      0.66134049      2.14790995e+00   -7.03749936e+00   -8.68627542e+00      -12.58584724     14.46400902     -2.04504293  
H     -1.91037690      4.44788004      0.65318148      1.85686324e+00   -1.65680322e+00    5.22160816e+00       36.54764848    -41.14889684      7.41875148  
H     -1.84123278      4.39280880      0.67106544      9.72270866e+00    7.05133116e+00   -1.15967635e+01      155.06241155    -99.96084373     14.91925711  
H     -1.85738087      4.37875155      0.71135201      9.82425049e+00    1.76590464e+01    1.10723618e+01       79.50174792    -27.63278337      5.19101085  
H     -1.86936432      4.37229461      0.71136343      1.51329891e+00    1.03271147e+01   -3.00551653e+00      -54.29014055     15.63802333     -2.70896475  
H     -1.79731410      4.45285726      0.60284134      1.03393362e+01   -1.32970708e+01   -1.51433552e+00      -47.94830239     23.91642631      0.72256517  
H     -1.80451941      4.55229660      0.65244438      1.29137044e+01   -7.67367909e+00   -1.34111545e+01       -8.15619866      3.99132285      1.24260516  
H     -1.77351078      4.57472953      0.61667804     -1.26272792e+01   -9.67367764e+00    1.02461685e+01      -38.32740283     30.79387764     -0.56686275  
H     -1.81133669      4.51053604      0.62970708      8.28713069e-01    1.85627538e+01    1.18691574e+01      -42.40336079     29.83417031      5.74311498  
H     -1.74589711      4.42848933      0.63104049      4.51181023e+00    1.37765095e+01    5.78958887e+00      -22.87075770     16.65427641      0.86683134  
H     -1.77471291      4.42250949      0.69440954      4.07630991e-01   -2.60378625e+00   -8.06926908e-02       28.30668873    -22.74031458     -5.82282531  
H     -1.74091567      4.45486796      0.64274955     -6.22078985e-01    6.13727076e+00   -4.51326160e+00       -5.09406233      5.46407251      1.96527985  
H      3.18492407     -8.64978262     -0.96413991      1.80034576e+01    5.84066327e+00   -5.67190006e-01        0.00000100     -0.00000282     -0.00000033  
H      3.23052684     -8.66552045     -1.02080600     -2.63949981e+00   -1.09805014e+01   -3.57440316e+00        0.00000101     -0.00000281     -0.00000034  
H      3.22104160     -8.69293696     -1.10661614      5.52556295e+00    1.95360192e+01    3.74424915e+00        0.00000098     -0.00000278     -0.00000036  
H      3.03454700     -8.70349622     -1.22941802      3.78982876e+00    9.00055248e+00    1.98243074e+00        0.00000095     -0.00000278     -0.00000039  
H      3.10966959     -8.69222596     -1.19534786      4.86604756e+00   -9.69879378e+00    9.20825159e+00        0.00000097     -0.00000282     -0.00000039  
H      3.18446871     -8.65069925     -1.24780332      1.25074848e+00   -1.01929868e+01    5.45776429e+00        0.00000092     -0.00000261     -0.00000036  
H      3.24219898     -8.55737926     -1.30062278     -2.24084886e+00    5.84028556e+00    7.47809416e+00        0.00000092     -0.00000259     -0.00000036  
H      3.24745029     -8.75238591     -1.23818612      2.79714258e+00   -2.12091732e+00   -2.56801157e-01        0.00000085     -0.00000241     -0.00000032  
H      3.19245794     -8.74061853     -1.29539122     -1.00965329e+01   -1.94169928e+00    2.16908255e+00        0.00000088     -0.00000251     -0.00000035  
H      3.13391662     -8.74964761     -1.38450563     -1.42150930e+01   -8.74904363e+00    2.57287943e+00        0.00000085     -0.00000238     -0.00000035  
H      3.05281800     -8.76728502     -1.44517330     -4.68660008e+00   -4.85106048e+00   -1.86349300e+00        0.00000086     -0.00000244     -0.00000037  
H      3.12766741     -8.67041750     -1.44177496     -9.25521279e+00   -1.10072780e+00    8.80561208e+00        0.00000088     -0.00000243     -0.00000037  
H      3.07780183     -8.65572564     -1.40965987      7.03537351e+00   -6.65557793e+00    9.61284867e+00        0.00000090     -0.00000247     -0.00000039  
H      3.02871177     -8.60880146     -1.44450064      1.97948608e+00   -1.36507262e+00    7.97762791e+00        0.00000094     -0.00000255     -0.00000039  
H      3.11261862     -8.64269798     -1.38933595     -6.79801233e+00   -1.06491568e+01    1.01924281e+01        0.00000094     -0.00000249     -0.00000038  
H      3.16251093     -8.66368085     -1.25114276     -4.47920755e+00   -2.09343914e+00   -7.74073497e+00        0.00000094     -0.00000251     -0.00000037  
H      3.09289713     -8.56043979     -1.16551289      7.44964242e+00    2.19808506e+00   -1.17319568e+00        0.00000096     -0.00000263     -0.00000037  
H      3.13553430     -8.37533031     -1.03668901      3.35928005e+00    2.97528463e-01    1.27688699e+00        0.00000109     -0.00000285     -0.00000038  
H      3.10806369     -8.42546115     -1.08738612      5.69735215e-01    6.22408742e+00   -3.86483770e+00        0.00000109     -0.00000292     -0.00000041  
H      3.09768644     -8.41102184     -1.13617333      7.32125996e+00    1.46928956e+01    5.33899849e+00        0.00000112     -0.00000296     -0.00000043  
H      3.12411808     -8.41927726     -1.18947994      1.47651536e+01   -5.67037527e+00   -2.10526177e-01        0.00000112     -0.00000295     -0.00000045  
H      3.03813091     -8.39723354     -1.16012782      7.10725954e+00    5.13948801e+00   -5.62899851e+00        0.00000116     -0.00000310     -0.00000046  
H      3.06407782     -8.45760310     -1.18882644      2.37502169e+00   -7.58320492e+00    4.47513056e+00        0.00000108     -0.00000297     -0.00000044  
H      2.98710135     -8.32965039     -1.20306051     -4.50293834e+00    9.56629467e+00    2.86048979e+00        0.00000112     -0.00000315     -0.00000048  
H      3.00441885     -8.42808229     -1.19614818      8.02424601e+00    4.85424071e+00   -7.51964081e+00        0.00000107     -0.00000306     -0.00000047  
H      2.97278479     -8.56699010     -1.18068769     -5.85552560e+00    6.10754984e+00    2.76063476e+00        0.00000100     -0.00000295     -0.00000041  
H      3.02114674     -8.51188216     -1.18058557     -9.64716861e+00   -1.00141495e+01   -9.14245958e-01        0.00000097     -0.00000280     -0.00000039  
H      3.02235720     -8.48375491     -1.21106479     -7.31264521e+00   -4.41420960e+00   -8.14765274e+00        0.00000102     -0.00000296     -0.00000043  
H      3.10946323     -8.50601401     -1.16601852      9.98036937e+00    7.72391889e+00   -5.96405088e-01        0.00000104     -0.00000294     -0.00000040  
H      3.09200501     -8.62363370     -1.15771512      2.46979525e+01    1.05092327e+00   -3.31505890e+00        0.00000102     -0.00000291     -0.00000040  
H      3.08439873     -8.60191659     -1.05061607      4.45851300e+00   -3.01659540e+00   -1.73085426e+01        0.00000103     -0.00000291     -0.00000038  
H      3.17065412     -8.62727980     -1.04842529      9.47566257e+00    8.98006432e+00    3.03229183e+00        0.00000104     -0.00000289     -0.00000036  
