3
100000  xi=   0.62004805  Mean pot=  -105.30114247  Cent pot=  -108.76355635 kcal/mol
H     -0.50309366      1.08679473     -1.69275355       0.19574496
H      0.02873092      1.53919136     -1.75897037       0.23533778
H      0.47436274     -2.62598609      3.45172392       0.19078942
3
200000  xi=   0.61471754  Mean pot=  -107.04127584  Cent pot=  -109.35000879 kcal/mol
H     -0.91724229     -1.93024931      1.50416590       0.19904927
H     -0.56535666     -1.59976589      0.91592884       0.20313826
H      1.48259895      3.53001520     -2.42009474       0.15056606
3
300000  xi=   0.63025420  Mean pot=  -106.11016431  Cent pot=  -109.49599806 kcal/mol
H     -2.07662842     -0.10322231     -0.46918677       0.18181845
H     -2.03960902      0.62157612     -0.32897762       0.20354343
H      4.11623744     -0.51835381      0.79816439       0.19387946
3
400000  xi=   0.61600073  Mean pot=  -103.93061873  Cent pot=  -108.92219209 kcal/mol
H     -1.29375538      1.64545648      0.16332843       0.26897737
H     -1.22873873      1.85044080      0.91360168       0.15915056
H      2.52249410     -3.49589728     -1.07693011       0.21499631
3
500000  xi=   0.61903735  Mean pot=  -107.52503317  Cent pot=  -106.90125754 kcal/mol
H     -2.12752514     -1.28823247     -0.52150643       0.25381272
H     -1.66383386     -0.88717057     -0.25456531       0.23399248
H      3.79135901      2.17540305      0.77607174       0.16546118
3
600000  xi=   0.61168843  Mean pot=  -105.31958136  Cent pot=  -109.40666219 kcal/mol
H     -1.14081446      1.77368903      0.34791735       0.23372821
H     -1.81473896      1.46470015      0.49957622       0.15740287
H      2.95555342     -3.23838918     -0.84749358       0.17525609
3
700000  xi=   0.62425398  Mean pot=  -106.45866868  Cent pot=  -109.29031635 kcal/mol
H     -0.56722340     -1.30088488     -1.68856602       0.22211493
H      0.05108772     -1.57732602     -1.44503980       0.17905491
H      0.51613568      2.87821090      3.13360582       0.19388760
3
800000  xi=   0.62218953  Mean pot=  -105.80525327  Cent pot=  -108.86860657 kcal/mol
H     -1.43768739     -1.21221665      1.15078702       0.25509912
H     -1.17026022     -1.66860008      0.68590749       0.15877017
H      2.60794761      2.88081673     -1.83669450       0.17847296
3
900000  xi=   0.60737444  Mean pot=  -106.79464807  Cent pot=  -109.28294873 kcal/mol
H     -1.20811115      1.67303772      0.71747804       0.18822931
H     -1.75589727      1.53114478      0.27328608       0.21541531
H      2.96400842     -3.20418251     -0.99076413       0.16906772
3
1000000  xi=   0.62224858  Mean pot=  -107.29337781  Cent pot=  -109.37415277 kcal/mol
H     -1.01151120      0.27134299     -1.57123798       0.13458185
H     -1.13851182      0.57545977     -2.21654825       0.21173435
H      2.15002302     -0.84680275      3.78778623       0.23118258
3
1100000  xi=   0.62021546  Mean pot=  -103.76566122  Cent pot=  -107.21871639 kcal/mol
H      2.06458691     -0.60673204      0.02036952       0.16170856
H      2.14215574     -0.38912191     -0.76881276       0.16537996
H     -4.20674265      0.99585395      0.74844325       0.20652804
3
1200000  xi=   0.63673266  Mean pot=  -106.51415711  Cent pot=  -109.24162346 kcal/mol
H      1.51696413      0.32950927      1.14934840       0.16864518
H      1.88342741      0.99654888      1.05242487       0.18567037
H     -3.40039155     -1.32605815     -2.20177327       0.22566146
3
1300000  xi=   0.63589710  Mean pot=  -106.08009479  Cent pot=  -109.11802933 kcal/mol
H      0.62624507      1.81913159      0.94054060       0.19714291
H      0.11848924      2.06754335      0.41333158       0.16278883
H     -0.74473431     -3.88667494     -1.35387219       0.18353534
3
1400000  xi=   0.62427797  Mean pot=  -106.06227745  Cent pot=  -109.45765841 kcal/mol
H      2.27229583     -0.55475272      0.11482760       0.18683827
H      2.04969608      0.10959594     -0.15731760       0.16161604
H     -4.32199191      0.44515678      0.04249000       0.17267313
3
1500000  xi=   0.62277790  Mean pot=  -106.15568472  Cent pot=  -109.36241757 kcal/mol
H      1.51722805     -1.41696845      0.70824267       0.13960208
H      0.90053043     -1.86092544      0.68961307       0.21182650
H     -2.41775848      3.27789389     -1.39785574       0.17711744
3
1600000  xi=   0.61642758  Mean pot=  -105.03576916  Cent pot=  -108.66845265 kcal/mol
H      1.38170822      2.19064879     -0.43933332       0.18907118
H      1.13623292      1.54026692     -0.06684182       0.17328097
H     -2.51794114     -3.73091570      0.50617514       0.16853129
3
1700000  xi=   0.62058863  Mean pot=  -108.03230954  Cent pot=  -109.45996653 kcal/mol
H     -1.29764029      1.51544064     -0.57805541       0.15669836
H     -1.81294000      1.14970605     -0.94776001       0.21481613
H      3.11058029     -2.66514669      1.52581541       0.22031508
3
1800000  xi=   0.62407072  Mean pot=  -106.55055994  Cent pot=  -109.37418787 kcal/mol
H      2.00989266      0.52711576      0.40515510       0.15136820
H      1.95558089      1.10144357     -0.03335087       0.18976744
H     -3.96547355     -1.62855933     -0.37180423       0.20850155
3
1900000  xi=   0.62252080  Mean pot=  -106.75127144  Cent pot=  -108.46075257 kcal/mol
H      1.25230378      1.52240452      0.65211138       0.17247374
H      0.95357500      2.06519592      0.33909849       0.14752154
H     -2.20587879     -3.58760044     -0.99120986       0.23039025
3
2000000  xi=   0.61906131  Mean pot=  -106.47076380  Cent pot=  -109.48916656 kcal/mol
H     -0.82531448      0.45868918     -2.28155117       0.15848581
H     -1.02150991      0.63828494     -1.59429040       0.18509446
H      1.84682439     -1.09697413      3.87584157       0.18746077
