96
100000  xi=   0.92480390  Mean pot=  -105.01044855  Cent pot=  -108.18289413 kcal/mol
H     -0.15893324     -0.04366730     -0.31556041      2.04347988e+00   -3.64250716e+00   -3.16089287e+00        3.23263128      3.22814756      6.42255905  
H     -0.20214633     -0.12221037     -0.29969893     -1.06070896e+01    2.27225680e+00    3.69235647e+00      -25.73039090    -29.41499313    -62.15689365  
H     -0.18109518     -0.11066058     -0.32207743     -1.31701566e+00   -8.44725500e-01   -1.57157579e+00      -42.08754844    -85.09309677   -141.28463408  
H     -0.15686111     -0.03674109     -0.32963583     -7.64961936e-01    7.82972465e+00    2.17502068e+00      -24.38520135    -34.61411365    -35.00720287  
H     -0.12628670     -0.06640462     -0.32446003      4.61739851e+00    3.66595248e+00    1.59562012e+01      -19.13884777    -28.55179711    -30.37068006  
H     -0.15446132      0.11848175     -0.33693395      3.78405949e+00    2.69217813e+00    5.08706946e+00       12.22881153     16.49307123     16.16996339  
H     -0.15912725      0.18408273     -0.37001031     -1.17857245e+01   -3.80391669e+00    4.32962257e+00       17.93520721     21.88746665     30.27592808  
H     -0.20004307      0.10856522     -0.37056861      8.34744372e+00   -6.30661906e+00   -1.33061082e+00        3.12759866      2.73288766      4.41016920  
H     -0.17167587      0.01366390     -0.37510096     -6.14257328e+00    4.47547775e+00   -3.18314067e+00      -28.43138670    -21.71032574    -30.23928834  
H     -0.26334587      0.06926873     -0.39453295      7.50222856e+00   -3.85747830e-01    5.33788845e-01        5.45375066      2.92347320      4.19775594  
H     -0.17432603      0.02556234     -0.34681327      4.06201475e+00    7.65720005e-01    1.02911443e+01       68.52519478     31.94416176     48.96070917  
H     -0.32370094      0.05709511     -0.37558383      5.85821275e+00    3.71649297e+00    7.11149585e+00       24.66792751     12.96001231     24.05782300  
H     -0.39776051     -0.03758684     -0.35012958     -3.64444825e+00   -9.35148235e+00   -7.37537365e+00        9.18636000      3.68620399      8.33218675  
H     -0.45279838      0.00110342     -0.37787985     -4.23052873e+00    3.44801264e+00   -1.93431705e+01       28.95861393     16.73737224     30.84712361  
H     -0.46085997      0.00506716     -0.28129201     -9.20109138e+00    1.73288920e+01   -1.75099521e+00       50.02803132     31.77658005     62.51341231  
H     -0.38842246     -0.18595270     -0.28025007     -2.81223913e+00    1.50377884e+00    9.34912984e+00      -10.46039063      0.56869280    -11.17051000  
H     -0.37328729     -0.11211402     -0.31667426     -6.56288206e+00   -7.00781275e+00   -4.52705983e+00      -29.69984981      3.09551704    -37.44837564  
H     -0.30272942     -0.09699836     -0.29730811     -4.48295812e+00    5.94796041e+00    1.80567113e-01       46.84896539      3.84783997     37.71908294  
H     -0.20532685     -0.03368649     -0.34814872     -9.10175463e-01   -1.16707988e+01    1.59912104e+01       58.07107000     22.76830755     28.41573065  
H     -0.24011001     -0.05614835     -0.37750219     -2.09345363e+00   -8.24533163e+00   -2.86253286e-01       58.12893421     27.62255929     27.65576084  
H     -0.26092526     -0.09496413     -0.28502456     -3.32704119e+00   -7.43841911e+00   -3.18770983e-01       52.01610923     20.18145539     35.97021164  
H     -0.24323307     -0.09179833     -0.27114336      1.00415610e+00    6.62297659e+00   -5.96333422e+00       53.43116138     29.86779865     44.60698268  
H     -0.13079305     -0.03062043     -0.29177879      4.12968319e+00    1.06819003e+00   -4.13990175e+00       60.66119489     39.15568962     42.63241635  
H     -0.14117774     -0.07693871     -0.23664307      5.77396367e+00    1.85423298e+00    4.50464363e+00       12.37571514      5.23808495     11.19178189  
H     -0.06673246     -0.04113633     -0.25580095     -3.74273998e-01    1.10656344e+01   -4.54237852e+00       25.55044002     16.24547736     20.00037142  
H      0.03899492     -0.03570888     -0.37395649      1.09831209e+01   -9.46756591e+00   -1.28441347e+01       53.47136051     24.61949277     32.33105153  
H     -0.09414165     -0.00132184     -0.25968841      5.33684222e+00   -6.07961509e+00   -5.02331844e+00       34.97670163     10.29070298     44.69545739  
H     -0.13267397     -0.12438139     -0.13909665      2.46855841e+00   -9.56930289e-01   -2.85909961e+00       35.06000897      3.30199754     73.10941068  
H     -0.11575725     -0.17904876     -0.20439408      1.50917294e+00    2.02417524e+01    4.97265551e+00       39.95898532     -1.67073677     68.91689874  
H     -0.15093079     -0.26152291     -0.18136457     -2.88203758e+00    9.27597189e+00   -4.60149790e+00       19.83872781      0.02589655     49.41155027  
H     -0.15241303     -0.20910712     -0.14791397      6.00159912e+00   -1.13443566e+00    1.78650278e+00       36.41169613      4.01088216     61.07219467  
H     -0.12994255     -0.23604173     -0.32778705      3.24343896e+00    2.29478479e+00    5.66416707e+00        8.36134854      1.08581840     10.61695375  
H     -0.44870769     -0.37762291     -0.92240362      9.67789167e+00    4.65652036e+00   -4.95348031e+00       -1.67161660     -2.61019621     -3.97796710  
H     -0.44073297     -0.38852545     -0.86744094     -1.01685185e+01   -9.47667463e+00    8.81012279e+00       27.86486801     30.23190995     65.14164502  
H     -0.33469658     -0.41402509     -0.82899738     -1.10424566e+01   -1.06066293e+00    8.57057324e-01       44.86012535     86.24388341    145.19551120  
H     -0.46801302     -0.45318020     -0.77604016      2.67031398e+00   -7.08746452e+00   -1.84275780e+01       28.95435234     36.49437298     41.51500531  
H     -0.42276903     -0.48470451     -0.79096578     -9.23124228e+00    4.05310190e+00    9.42392550e+00       22.81108103     30.25093988     35.57280032  
H     -0.50186154     -0.39734510     -0.80127159     -3.47428877e+00    5.31135946e+00    9.92430475e+00       -8.47460148    -15.11018695    -11.59311781  
H     -0.49814974     -0.24915213     -0.95283064      1.45582870e+01   -2.29218098e+00    4.48152103e+00      -15.02442981    -20.91813044    -26.75621442  
H     -0.54214845     -0.29855860     -0.89691848     -1.87956123e+00   -3.01217797e+00   -4.52520911e+00       -0.43877725     -2.06073627     -1.30012799  
H     -0.59492326     -0.29740994     -0.82617370     -1.23225481e+01   -6.49767924e+00   -4.91286176e+00       32.30391456     22.71313031     34.50508964  
H     -0.80748786     -0.28529327     -0.76938189     -7.89938720e+00    2.53070907e-01   -5.38498584e+00       -1.74783507     -2.03217566     -0.57925074  
H     -0.90686879     -0.31351713     -0.87331015     -4.56272387e+00   -2.09116209e+00   -5.46949225e+00      -66.67506028    -31.32315299    -47.32780529  
H     -0.85351275     -0.22883272     -0.89218156     -1.17939799e+01    3.04259805e+00    1.45367117e+01      -21.67122583    -12.20075098    -21.12335838  
H     -0.93652170     -0.26024901     -0.83356120      8.78390313e+00    3.63704547e+00   -1.26939310e+01       -6.72101007     -2.91887337     -5.91663631  
H     -0.96623145     -0.29992272     -0.92586042     -1.20631310e+01   -1.02167104e+01    3.59465097e+00      -26.65875785    -15.98680385    -28.54139544  
H     -0.99460179     -0.33510209     -0.94921701     -7.53406652e+00    1.03615748e+01    6.99683428e+00      -48.66781737    -31.33379453    -61.17224016  
H     -0.88393817     -0.17297618     -0.80736897      4.27485595e+00   -2.89659623e-01    1.68158833e+01       12.59912524      0.03869427     13.34893295  
H     -0.80287032     -0.07221452     -0.85775871      1.29740547e+00   -1.21218127e+01    6.49947580e+00       31.49902973     -2.53512310     39.62881812  
H     -0.95696671     -0.14920336     -0.82228976     -5.04134554e+00   -1.39981500e+00    8.47040472e+00      -46.11198435     -3.53069744    -36.83067050  
H     -0.93579357     -0.31986733     -0.70233338     -4.53605408e+00   -3.91034390e+00   -1.35535164e+01      -56.85866817    -22.23548885    -26.96542922  
H     -0.95877824     -0.39755315     -0.71678511     -1.01464908e+01    3.69743877e+00    5.43819042e+00      -57.15275262    -27.13121363    -26.48529882  
H     -0.93243946     -0.35494306     -0.74647299      1.28324096e+00    3.56295551e+00   -4.09446152e+00      -50.64414862    -19.52672395    -34.38170867  
H     -0.86647298     -0.44005030     -0.78916533      3.91965591e+00   -1.48999449e+00    1.64316888e+01      -52.18401532    -29.13392765    -42.95011730  
H     -0.79098517     -0.45700876     -0.75325164      3.05384438e+00    8.72620119e+00   -1.02959619e+01      -59.02794564    -38.19865883    -40.49557174  
H     -0.69803270     -0.29874182     -0.70929247      5.30618192e+00    1.58593185e+01   -5.75275332e+00       -9.58553622     -3.39794997     -7.20036718  
H     -0.63219725     -0.39973569     -0.67989397      2.05454307e+00   -2.60590118e-01    6.13836095e-01      -22.63591747    -14.29214876    -15.73027674  
H     -0.64932798     -0.35192745     -0.77983508      8.63192755e+00    3.53921507e+00    1.35960773e+01      -50.70768692    -23.16741574    -28.02097205  
H     -0.60280941     -0.14898092     -0.90554453      6.78315033e-01   -3.34945613e+00   -7.21634763e+00      -32.41273259     -9.19379032    -40.70759862  
H     -0.52598213     -0.16078068     -0.96007261      1.46492983e+00   -1.31260068e+01    9.78676116e+00      -32.95606498     -2.31073094    -69.73879078  
H     -0.56554266     -0.15765152     -0.98121561      3.40240495e+00    3.02690765e+00    1.08306603e+01      -37.99711266      2.49828617    -65.91264210  
H     -0.45373078     -0.25515913     -0.94859123      9.57356855e+00    1.35890162e+01    7.04978429e+00      -17.38351013      1.11832953    -45.50021194  
H     -0.59655387     -0.25549340     -0.89436026      1.39450918e+01   -2.28350826e+00   -5.22130505e+00      -34.30863796     -3.16360872    -57.90939429  
H     -0.60260147     -0.28561070     -0.91872935      5.06195428e+00    2.52360884e+00   -2.33164929e+00       -6.78683487     -0.44226000     -8.27479195  
H      0.94776515      0.26751706      1.32896093      1.22154716e+01    5.40473694e+00   -2.61081205e+00       -1.56101467     -0.61795135     -2.44459196  
H      1.00041019      0.24063442      1.25159532     -2.36513267e+00   -8.59365683e+00   -1.01797493e+01       -2.13447712     -0.81691682     -2.98475138  
H      1.01060730      0.25347977      1.20081764      3.39245332e+00    1.86135575e+01   -2.85535506e+00       -2.77257690     -1.15078664     -3.91087712  
H      0.82394811      0.21314000      1.06559872      3.75889363e+00    1.22591511e+01    4.80647341e+00       -4.56915100     -1.88025933     -6.50780244  
H      0.90902582      0.25659776      1.11635981      7.34325178e+00   -9.94943662e+00    1.48845191e+00       -3.67223326     -1.69914277     -5.20212027  
H      0.98476743      0.30429080      1.02732077     -5.98928772e-01   -6.97867392e+00    4.52864557e+00       -3.75421005     -1.38288428     -4.57684558  
H      1.06022941      0.38999218      0.99641878      1.58993586e+00    5.96030816e+00    2.21687223e+00       -2.91077740     -0.96933620     -3.51971366  
H      1.10203201      0.23830209      1.05595852      3.50657070e-01   -3.08919475e+00   -2.16004552e+00       -2.68882141     -0.67215139     -3.11004121  
H      1.05102067      0.21779312      0.98022933     -5.20404212e+00   -1.58273463e+00    6.99651610e-01       -3.87252786     -1.00280457     -4.26580130  
H      1.00025056      0.24200989      0.93099907     -1.42815372e+01   -9.85982366e+00    5.74588219e-01       -3.70591558     -0.89129754     -3.61850519  
H      0.92204033      0.21119631      0.85571042     -2.95258852e+00   -4.12415210e+00   -1.21463578e+00       -1.85013450     -0.62100877     -1.63290388  
H      0.98576946      0.29953998      0.90799265     -6.60062777e+00   -2.52272982e-01    3.41569170e+00       -2.99670168     -0.75926133     -2.93446462  
H      0.94190905      0.34852812      0.98742258      6.62090115e+00   -5.64996391e+00    6.95814432e+00       -2.46534993     -0.76733062     -2.41555043  
H      0.88189235      0.35704133      0.94038494      6.61893043e+00   -2.89776113e-01    4.33900436e+00       -2.29985607     -0.75056839     -2.30572817  
H      0.96171599      0.34400981      1.01570092     -9.61109393e+00   -9.41180093e+00    7.13523432e+00       -1.36021395     -0.44278552     -1.34117215  
H      0.98228495      0.28872819      1.10344170     -8.68247551e-01   -1.27955758e+00   -1.28502259e+01       -2.13873461     -0.60738707     -2.17842295  
H      0.90130111      0.37812113      1.21702409      5.57916955e+00    4.52358985e+00   -5.31607772e+00       -1.79917993     -0.56039393     -2.18044248  
H      0.94431607      0.57174799      1.35787443      4.28697583e+00   -1.98534814e+00   -2.89158490e+00       -0.73698104     -0.31714252     -0.88841243  
H      0.89222400      0.47305356      1.32860511     -1.45265111e-01    7.11900863e+00   -4.84312023e+00       -1.21240182     -0.53281870     -1.45030143  
H      0.87881590      0.52126651      1.32962897      4.47380335e+00    1.43031096e+01    9.06169299e-01       -0.97618158     -0.49134566     -1.17046202  
H      0.88402533      0.49074817      1.24607962      1.52934467e+01   -6.88732899e+00   -1.35742684e+00       -1.37196060     -0.65473144     -1.58850297  
H      0.77849739      0.52206597      1.29812672      1.70339060e+00    6.39323379e+00   -6.19614837e+00       -1.24714605     -0.73387100     -1.65686538  
H      0.80905935      0.48971738      1.24702804      3.79246072e+00   -1.07103694e+01    3.49873667e+00       -1.63324926     -0.95703079     -2.13684462  
H      0.73703791      0.58609110      1.20640438     -9.80947924e+00    1.28972256e+01    5.07776950e+00       -2.79017892     -1.84013497     -3.99141472  
H      0.76329571      0.52733979      1.20211043      6.51906893e+00    2.79981750e+00   -8.46860209e+00       -2.91452254     -1.95332860     -4.27009468  
H      0.72736582      0.35783147      1.16769491     -1.17744583e+01    7.92184799e+00    2.98248848e+00       -2.76367358     -1.45207703     -4.31007948  
H      0.77923646      0.41501276      1.18737557     -1.13433292e+01   -1.08339138e+01   -9.34114349e-01       -2.56396904     -1.09691266     -3.98785878  
H      0.77064661      0.43940722      1.13092394     -1.05016856e+01   -7.41021265e+00   -7.62771801e+00       -2.10394399     -0.99126660     -3.37061990  
H      0.83690668      0.38114859      1.18839606      4.03921774e+00    9.38083203e+00    1.19913293e+00       -1.96187266     -0.82754940     -3.00425664  
H      0.83530625      0.29096721      1.21042055      2.32556674e+01   -2.03142681e+00   -1.01127245e+01       -2.45521768     -1.14422609     -3.91133832  
H      0.82481185      0.27320896      1.26925823     -4.34371767e-01   -1.28173134e+00   -1.63043445e+01       -2.10305817     -0.84727344     -3.16280039  
H      0.91675792      0.27268116      1.29240556      9.60195415e+00    5.57663698e+00   -1.84364193e+00       -1.57451366     -0.64355840     -2.34216180  
