96
100000  xi=   0.00749439  Mean pot=  -107.00135548  Cent pot=  -108.75338530 kcal/mol
H      0.92115650      5.32953483     -0.03527323      5.40358297e+00   -8.23994013e+00   -2.78002818e+00      -58.85544067    -28.20770891    -17.09951483  
H      0.94094653      5.24573841      0.04251842     -7.73003364e+00    1.76915768e+00    1.12316432e+00        2.75059978      0.90227554      1.15726598  
H      0.99147756      5.19383519      0.14507674     -3.53078851e+00   -5.44234127e+00   -2.21364740e+00        7.54018206      1.05528465      5.30823963  
H      0.97593106      5.29461423      0.13565333      6.05795664e+00    7.75497994e+00   -1.54111745e+01       48.25012904     19.72654414     26.49610007  
H      1.01905414      5.22283854      0.17466268      1.20259540e+00    9.76654176e+00    1.27202261e+01       49.69922922     12.06797761     32.38339476  
H      0.94475386      5.35686458      0.12429026      9.85873124e-01    1.27926154e+01    1.51074754e+01       24.57533348      5.96096003     15.49347442  
H      0.95073975      5.49115848      0.06281311      3.90780986e+00   -3.49629551e+00   -5.25017613e+00       37.95558304     12.95848041     26.44417890  
H      0.90884871      5.41145991      0.04419861     -3.77084082e+00   -5.98077065e+00   -7.65505492e+00      -16.13327091     -3.76549347     -9.51866555  
H      0.92422234      5.25084303      0.10512722     -8.53026525e+00   -2.27601731e+00   -7.84207104e+00       28.93777819     -2.34077126     19.00156658  
H      0.75626467      5.19147748      0.11156249      4.69236692e+00    2.75631026e+00   -8.29159631e+00       17.80450189     -7.84100879     10.58491485  
H      0.73669493      5.06199345      0.07078071     -6.71768992e+00    7.58112578e+00    9.85732694e+00       36.68835926    -27.87659672     22.32343008  
H      0.64943250      5.19460829      0.03700188      2.34446575e+00    1.19208109e+01    4.74672884e+00      -67.78647430     37.65731089    -37.60768446  
H      0.52494244      5.18629056      0.07643217     -2.02634496e+00    1.71185097e+00   -9.61808597e+00     -304.01530074    153.97498078   -170.05205491  
H      0.62293376      5.21532164     -0.05496087     -3.78016866e-01   -2.52353050e+00   -1.73957773e+01       -8.28944516      1.35416335     -1.22886134  
H      0.66713167      5.23813163     -0.05501299     -1.74310395e+00    1.44161595e+01    4.49139246e-01       62.27747594     -4.48122096      0.91527242  
H      0.73403815      5.20466572     -0.07330446      9.72251233e-01   -5.40263922e+00    3.93893749e+00       56.74356421     -4.44492431     -8.02864152  
H      0.77965887      5.33048539     -0.12368848     -7.74974517e+00   -2.11109534e+01   -6.00956479e-01       61.15354429      1.94878982    -11.68485079  
H      0.69212493      5.39897888      0.00385058     -8.48550097e+00    4.46102745e+00    7.07970440e+00       20.37597741      5.98531875      0.82234762  
H      0.68015414      5.39923823     -0.03134932     -7.27116796e+00   -2.02203020e+01    7.77096540e+00       -4.35557348     -2.62126946      0.92179310  
H      0.65334698      5.42955959      0.01162938     -8.31090742e+00   -8.47567842e+00    1.60967266e+00       33.08820309     26.39054189     -2.70598758  
H      0.62326007      5.39016215      0.09965838     -4.41327436e+00    3.43259658e+00    1.80445516e+00       -3.79614202     -2.86510987     -0.60129948  
H      0.68296401      5.32615148      0.06491020     -2.84154813e+00    1.46022261e+00    5.07252238e+00        2.73969501      1.65126300      0.12361633  
H      0.88424655      5.31102621      0.06877868     -5.91470622e-01    8.08065939e+00   -5.56971382e+00       75.49329674     25.10636469      3.89806307  
H      0.89279484      5.26130413      0.11789168      1.92621183e+01    6.37644946e+00   -8.85174018e-01       32.39891372      4.25844001      2.88364421  
H      0.97193675      5.24123905      0.05926663     -9.10248278e+00    1.13110433e+01   -1.62602535e+00       35.85993070      3.99514578     -2.14488241  
H      0.98552520      5.28296346     -0.08487671      1.30191328e+01    1.00699880e+01    4.53817375e+00        4.72175661      0.96028328     -0.43552827  
H      0.97329945      5.40760253     -0.04067117     -1.47830214e+01   -7.00882730e+00    2.70735308e+00       41.66679286      8.36946079      0.67902457  
H      0.98700896      5.33116496     -0.05146766      9.21717209e+00   -2.46344404e+00    6.67846056e-01       40.43578205      7.39693590     -2.50125627  
H      0.91293622      5.30610641     -0.06576308     -5.59531196e+00    1.50340645e+01    7.61651823e+00      -31.84133977     -8.46382238      0.15777707  
H      0.94541829      5.24161755     -0.07894680      3.55056921e+00    9.51380073e+00   -1.04047139e+00      -44.28888802    -13.86420789      6.70004118  
H      0.89211558      5.23529256     -0.05133423      3.15478223e+00   -6.25802013e+00    6.23317904e+00      -15.56521773     -4.02118782      1.86251304  
H      0.85641600      5.23290065     -0.07523281      9.46592026e+00    5.52282943e+00    7.66600760e-01     -114.04546216    -39.25255809     -9.87695232  
H      0.33126297      5.04681593     -0.20665744      1.06675927e+00    9.50794369e+00   -7.48631774e+00       58.85544078     28.20771003     17.09951480  
H      0.28325344      5.02999635     -0.23419427     -1.22322311e+01   -5.89460710e+00    4.65438543e+00       -2.75059968     -0.90227440     -1.15726601  
H      0.37953830      5.10819140     -0.28572455     -1.04267878e+01    3.30835674e+00   -5.21406299e+00       -7.54018195     -1.05528354     -5.30823964  
H      0.28578474      5.01245537     -0.24333397     -3.64395062e+00   -3.06535884e+00    1.87033481e+00      -48.25012892    -19.72654303    -26.49610008  
H      0.32847746      5.05515257     -0.27530842     -2.80329770e+00   -1.60262306e+00    4.81968077e+00      -49.69922910    -12.06797650    -32.38339478  
H      0.29643585      5.19960944     -0.28444066     -1.98835271e+00   -8.85371638e-01   -1.13344108e+00      -24.57533337     -5.96095895    -15.49347443  
H      0.30721394      5.27145125     -0.38554021      3.23413916e+00   -1.78696471e+00    8.67968527e+00      -37.95558294    -12.95847933    -26.44417891  
H      0.30078162      5.26953748     -0.31456232      8.32739658e+00   -3.61306547e+00   -2.16347464e-01       16.13327100      3.76549448      9.51866554  
H      0.26492867      5.30417318     -0.32778827     -4.50265578e+00    1.30189328e+00   -1.83693642e+00      -28.93777809      2.34077229    -19.00156659  
H      0.13647075      5.46443147     -0.25690982     -4.62038502e+00   -3.30421794e+00    1.32251501e+00      -17.80450180      7.84100980    -10.58491485  
H      0.14854104      5.50888531     -0.28708790      8.48888594e+00   -7.49068835e+00   -4.49516556e+00      -36.68835916     27.87659774    -22.32343007  
H      0.12866100      5.48391164     -0.25192021     -5.08746905e+00   -3.61979140e+00    1.13905291e+01       67.78647439    -37.65730984     37.60768446  
H      0.10211997      5.40043794     -0.16007510      7.28672313e+00   -5.72810911e+00   -1.32171090e+01      304.01530083   -153.97497970    170.05205491  
H     -0.09159594      5.33204712     -0.16088569     -1.07364605e+01   -2.48029591e+00   -2.10623869e+00        8.28944525     -1.35416224      1.22886134  
H     -0.17625755      5.29881832     -0.06740801     -1.72698358e+01    1.52071194e+01    1.62092150e+00      -62.27747586      4.48122206     -0.91527242  
H     -0.08942146      5.26917023      0.04320677      4.63966338e+00    8.11930592e+00    1.70078591e+01      -56.74356413      4.44492542      8.02864151  
H     -0.05020209      5.30404009      0.03487635      1.15151967e+00    5.00090886e+00   -1.69091856e+00      -61.15354419     -1.94878871     11.68485078  
H     -0.04580550      5.18221635     -0.02593132      4.24599413e-01   -1.50388764e+00   -2.70738041e+00      -20.37597731     -5.98531752     -0.82234764  
H      0.06007356      5.02606151      0.09988162      1.64961249e+00    6.22420930e+00   -6.42772592e+00        4.35557359      2.62127070     -0.92179311  
H      0.02613513      4.92930697      0.06292341     -6.24140011e+00    4.23323062e+00   -1.00799871e+00      -33.08820298    -26.39054061      2.70598757  
H      0.04048105      4.95031396      0.00734763      3.43651048e+00   -7.83652578e+00   -7.47392809e+00        3.79614213      2.86511114      0.60129948  
H      0.04491226      4.94158644      0.03612100      2.89874604e+00    5.62110477e+00    4.70714466e+00       -2.73969489     -1.65126170     -0.12361634  
H      0.03618623      5.02899175      0.02498946      9.72851701e+00   -7.22251782e-01   -9.95189079e+00      -75.49329662    -25.10636345     -3.89806308  
H      0.11512085      5.15908843      0.04867531     -1.29489913e+01    1.53587872e+01    1.73692288e+00      -32.39891359     -4.25843873     -2.88364421  
H      0.18525269      5.15359479      0.10632039      9.81254770e+00   -1.86553962e+00   -3.36766346e+00      -35.85993057     -3.99514456      2.14488241  
H      0.25591727      5.13458014     -0.01757868      1.21607873e+00   -1.34955964e+01   -3.67454388e+00       -4.72175648     -0.96028213      0.43552825  
H      0.18506046      5.24927177     -0.05351674      1.96388075e+01   -2.54498533e+00   -1.50882987e+01      -41.66679274     -8.36945968     -0.67902458  
H      0.19984892      5.18716942     -0.00277591     -7.93622266e+00   -1.39249752e+01    6.67101960e+00      -40.43578193     -7.39693474      2.50125626  
H      0.23039962      5.12467971     -0.06238104      5.10502509e+00    1.05829367e+01    9.86376262e+00       31.84133989      8.46382356     -0.15777708  
H      0.29046401      5.03659044      0.02013495      2.23361993e+00    1.09632581e+01   -3.42379482e+00       44.28888814     13.86420905     -6.70004119  
H      0.19652186      5.05558975      0.03189958      1.24384056e+01    5.26347627e+00   -8.77495784e+00       15.56521785      4.02118899     -1.86251306  
H      0.25437019      5.02568646     -0.12737323     -4.97891196e-01   -3.41253347e+00   -2.43105067e+00      114.04546227     39.25255926      9.87695229  
H     -0.91230038    -10.53008663      0.33286145      1.74669446e+01    5.14753026e+00   -4.53134118e-01       -0.00000011     -0.00000112      0.00000003  
H     -0.86665706    -10.54584927      0.27619205     -3.17951380e+00   -1.16714943e+01   -3.46006206e+00       -0.00000011     -0.00000114      0.00000003  
H     -0.87621517    -10.57324797      0.19035573      4.99183948e+00    1.88434892e+01    3.86084928e+00       -0.00000011     -0.00000112      0.00000002  
H     -1.06262914    -10.58381205      0.06760068      3.24914545e+00    8.30843817e+00    2.09498856e+00       -0.00000012     -0.00000111      0.00000001  
H     -0.98756775    -10.57255159      0.10161914      4.33064784e+00   -1.03900624e+01    9.32527218e+00       -0.00000012     -0.00000112      0.00000001  
H     -0.91274747    -10.53100375      0.04920283      7.13521840e-01   -1.08860765e+01    5.57140598e+00       -0.00000010     -0.00000108      0.00000001  
H     -0.85499118    -10.43770907     -0.00363003     -2.78032124e+00    5.14937916e+00    7.59289235e+00       -0.00000010     -0.00000108      0.00000001  
H     -0.84980430    -10.63269474      0.05878976      2.26323130e+00   -2.81363284e+00   -1.40547237e-01       -0.00000009     -0.00000101      0.00000001  
H     -0.90471552    -10.62093693      0.00162612     -1.06374463e+01   -2.63358997e+00    2.28175919e+00       -0.00000010     -0.00000104      0.00000001  
H     -0.96332733    -10.62997107     -0.08754035     -1.47499233e+01   -9.44049630e+00    2.69004910e+00       -0.00000009     -0.00000102     -0.00000000  
H     -1.04438987    -10.64759049     -0.14816291     -5.22454445e+00   -5.54406614e+00   -1.75021765e+00       -0.00000010     -0.00000103     -0.00000000  
H     -0.96952997    -10.55074784     -0.14478754     -9.79406171e+00   -1.79158887e+00    8.92087064e+00       -0.00000009     -0.00000105     -0.00000000  
H     -1.01944907    -10.53603264     -0.11267937      6.50114289e+00   -7.34845267e+00    9.72870342e+00       -0.00000009     -0.00000108     -0.00000001  
H     -1.06846061    -10.48912242     -0.14748567      1.43848074e+00   -2.05674450e+00    8.09050757e+00       -0.00000009     -0.00000111     -0.00000000  
H     -0.98463080    -10.52301907     -0.09237139     -7.33236965e+00   -1.13408157e+01    1.03096585e+01       -0.00000009     -0.00000110     -0.00000000  
H     -0.93468889    -10.54398778      0.04587116     -5.01784526e+00   -2.78632264e+00   -7.62776423e+00       -0.00000009     -0.00000110      0.00000000  
H     -1.00430814    -10.44077016      0.13146936      6.91147476e+00    1.50722526e+00   -1.05749190e+00       -0.00000010     -0.00000111      0.00000001  
H     -0.96171152    -10.25563587      0.26029655      2.82461149e+00   -3.95473506e-01    1.39230523e+00       -0.00000010     -0.00000123      0.00000002  
H     -0.98910925    -10.30578453      0.20962562      2.87787653e-02    5.53262308e+00   -3.75167813e+00       -0.00000011     -0.00000124      0.00000001  
H     -0.99956714    -10.29134040      0.16079157      6.78726066e+00    1.40010165e+01    5.45619967e+00       -0.00000011     -0.00000128      0.00000001  
H     -0.97307428    -10.29958601      0.10753667      1.42258728e+01   -6.36310192e+00   -9.77868238e-02       -0.00000010     -0.00000128      0.00000000  
H     -1.05908261    -10.27756342      0.13684963      6.56980440e+00    4.44858496e+00   -5.51288133e+00       -0.00000012     -0.00000130      0.00000001  
H     -1.03316173    -10.33790766      0.10816442      1.83981252e+00   -8.27629424e+00    4.59009197e+00       -0.00000012     -0.00000124      0.00000001  
H     -1.11007376    -10.20997593      0.09394722     -5.04370812e+00    8.87501754e+00    2.97399511e+00       -0.00000013     -0.00000128      0.00000000  
H     -1.09283739    -10.30839826      0.10081810      7.49047699e+00    4.16213601e+00   -7.40255825e+00       -0.00000013     -0.00000122      0.00000000  
H     -1.12440097    -10.44730100      0.11633065     -6.39537583e+00    5.41500901e+00    2.87322465e+00       -0.00000013     -0.00000114      0.00000001  
H     -1.07607510    -10.39221105      0.11638764     -1.01839074e+01   -1.07051379e+01   -7.97762283e-01       -0.00000012     -0.00000111      0.00000001  
H     -1.07487513    -10.36405895      0.08593139     -7.84847672e+00   -5.10734314e+00   -8.03315146e+00       -0.00000012     -0.00000116      0.00000001  
H     -0.98771557    -10.38634140      0.13098458      9.43991747e+00    7.03280092e+00   -4.82500905e-01       -0.00000012     -0.00000118      0.00000001  
H     -1.00525231    -10.50394712      0.13925350      2.41642766e+01    3.58599505e-01   -3.19817869e+00       -0.00000012     -0.00000116      0.00000001  
H     -1.01278156    -10.48222988      0.24640297      3.91818887e+00   -3.70892866e+00   -1.71960138e+01       -0.00000011     -0.00000117      0.00000002  
H     -0.92657576    -10.50760726      0.24854439      8.93961825e+00    8.28895222e+00    3.14908066e+00       -0.00000011     -0.00000117      0.00000003  
