96
100000  xi=   0.57903895  Mean pot=  -104.90111057  Cent pot=  -109.36258052 kcal/mol
H      0.20935091      1.96175668     -2.12074420     -7.88337151e+00    3.03971792e+00   -5.38491130e+00       37.83505598     76.02854452    -45.07611209  
H      0.15308692      1.87775116     -2.06321556     -4.06783672e+00   -3.25805153e+00   -1.18719410e+00       22.93762256     53.96130372    -30.08226197  
H      0.17933895      1.83847073     -1.97954538     -4.14583231e+00    7.89266220e+00    2.34624684e+00      -16.69990138    -48.91295682     22.50520792  
H      0.14907969      1.78871128     -1.97966303     -3.49607818e+00    4.12737040e+00    2.64510034e+00      -53.74254684   -104.60744551     65.48666849  
H      0.20853979      1.84949005     -1.95541306      8.12806747e+00    4.72155275e+00    4.40750063e-01        2.47492748      5.56473092     -2.30444125  
H      0.20540032      1.95171942     -1.95781822      2.15887641e+00    6.14500055e+00    1.22295039e+01      -12.04073407    -17.72546547      6.58779730  
H      0.15131242      2.02752290     -1.97958351      6.54332243e+00    3.06269889e+00    6.64700903e+00     -104.28807087   -205.40720367     36.75593290  
H      0.10412645      2.01238517     -2.00526623      5.19829044e+00   -1.70234085e+01   -1.45828440e+01      -43.80369366   -115.35241825     39.98095078  
H     -0.01051495      2.00726487     -1.94731094     -5.58461014e+00   -3.08162484e-01   -4.72634826e+00       -0.37024706    -48.71948537      9.11890198  
H     -0.20794298      2.15731252     -1.89458476      2.68030699e+00   -7.84509997e+00   -7.19754981e+00       -8.17234303     76.96551965     -8.67354386  
H     -0.24428379      2.10852812     -2.00612814      4.28892514e+00    5.65822824e+00    1.42564574e+01      -14.75115182     80.60115296    -23.37011502  
H     -0.31021749      2.13486051     -2.02700059     -3.56885252e+00    8.33170818e+00    6.97183161e+00      -15.72474954     69.61340780    -25.26297304  
H     -0.30722428      2.04980156     -1.94154941      2.04883067e+00    3.38794293e+00   -2.02782497e+01       -0.86013101     24.07450766     -8.36560985  
H     -0.38303148      2.02830390     -2.02589574     -8.40111055e+00   -3.38423062e+00   -1.11524857e+01       -3.52646885     31.32886868    -12.51093214  
H     -0.39135526      1.98031623     -1.97403808     -1.17370101e+01    1.27763238e+01    9.38582093e+00        2.88562494    -31.87890320     13.91556359  
H     -0.21052134      1.95139930     -1.91031339     -5.78221624e+00    1.12991105e+00    1.03990867e+01       -6.21957601    -26.95610639     10.20867431  
H     -0.16166201      2.05202222     -1.90087405     -2.30459235e+00   -1.84226742e+01    5.13934980e+00       -2.67343259    -11.33420810      2.76542844  
H     -0.10825678      2.10491708     -1.82318989     -1.96530986e+00    1.09970427e+01    1.16819366e+01       33.19506796     79.88491705     -7.47720119  
H     -0.03164646      1.93903048     -1.86284973     -7.94920166e+00   -7.88066495e+00    2.99834278e+00       26.99903523     44.08700792    -16.35053409  
H     -0.07145622      1.94126905     -1.83811013     -5.37564277e+00   -4.74443381e+00    1.17709860e-01       31.85873654     60.26458927    -16.69404666  
H     -0.08056421      1.86664706     -1.83861329     -2.20780958e+00   -6.28856875e+00   -9.00295977e+00        9.10897867     14.28883979     -5.58314752  
H     -0.07168471      1.77343290     -1.89271938     -4.20277172e+00    1.02422964e+00    5.72174184e+00      -21.93960328    -31.80351407     21.78391966  
H      0.03079458      1.81139814     -1.98406933     -4.85806655e+00    1.14263675e+01   -8.86604192e+00       18.88308108     26.61342375    -27.38391739  
H      0.08209786      1.86396366     -1.93119151      4.85807881e+00    8.81047485e+00   -5.18772170e+00       20.19835701     28.65523540    -26.31136897  
H      0.17459367      1.80668039     -1.93084180      2.00453139e+00    4.03236680e+00   -8.53947710e+00       10.83895271     11.65841970    -12.83498751  
H      0.13628672      1.84671585     -2.01039828      1.71511019e+01   -1.72681927e+00   -1.20549273e+00      -28.98987943    -58.29377822     43.92831339  
H      0.08544518      2.00612329     -2.00176323     -2.73307998e-01   -2.96862882e+00   -2.55049864e+00       -6.72513263    -16.97087535     10.75812612  
H      0.09405226      1.99265603     -1.95326965     -5.86257494e-01   -1.86163931e+01   -4.75311777e-01        8.29227455     26.28918480    -11.76800225  
H      0.13855828      1.96916111     -2.02152069     -5.70736260e+00    8.28121489e+00    8.69278000e+00       30.47952042     63.48811020    -32.30732908  
H      0.10402507      1.93571988     -1.96465557      8.24125667e+00    7.41616275e+00   -1.03596439e+01       16.72295232     72.49462599    -29.03890549  
H      0.06181962      2.00695109     -1.96504123      1.25600823e+01   -1.36321291e+00   -1.65734231e+01       25.03842180     94.28938648    -36.58409368  
H      0.15328713      1.91980937     -2.05969468      3.80128222e+00    1.59849072e+00    1.91384635e-01       40.86049336     79.57515157    -36.96566867  
H     -0.17226470      1.19490590     -1.66608832      1.41634494e+01   -3.59307864e+00   -4.66375334e+00      -37.83511493    -76.02832959     45.07580925  
H     -0.14424084      1.17827277     -1.67326737     -1.60830854e+01   -2.68725595e+00    7.17382517e+00      -22.93768728    -53.96107312     30.08193178  
H     -0.02366551      1.24389314     -1.70598156     -1.00012420e+01   -1.18509833e+01   -9.55753880e+00       16.69984886     48.91317894    -22.50553103  
H     -0.10270730      1.29862360     -1.67285885      5.72033848e+00   -1.25646524e+00   -1.59729793e+01       53.74248199    104.60771565    -65.48701937  
H     -0.07636405      1.20882392     -1.69005311     -9.91738713e+00    1.61849570e+00    1.73108223e+01       -2.47498514     -5.56448759      2.30409537  
H     -0.17954550      1.38504434     -1.74721817     -3.35172835e+00    3.94131795e+00    1.96155399e+00       12.04068153     17.72564565     -6.58803554  
H     -0.10871490      1.51537050     -1.88793880      4.09942606e-01   -1.01668354e+01   -3.00805585e+00      104.28803651    205.40734133    -36.75612384  
H     -0.10983548      1.44894199     -1.80997964     -8.31511991e-01    5.60551871e+00    6.92828659e+00       43.80365033    115.35258165    -39.98117665  
H     -0.01567750      1.32801545     -1.82018147     -7.63805739e+00   -2.48492080e+00   -4.74046174e+00        0.37022875     48.71967007     -9.11918054  
H     -0.11467424      1.27892472     -1.79559169     -2.79703660e+00    5.47307281e+00    4.41046663e-01        8.17232803    -76.96530385      8.67323431  
H     -0.08581382      1.24263488     -1.75505964     -2.70829257e+00   -7.38854925e+00   -8.67779026e+00       14.75114850    -80.60085563     23.36970437  
H     -0.12704450      1.32394946     -1.73271222      6.37494511e-01   -1.85170633e+00    9.37513234e+00       15.72474002    -69.61308136     25.26252872  
H     -0.28105010      1.31725002     -1.68697759      3.02141186e+00   -9.22796824e+00   -2.33999062e+00        0.86008847    -24.07417822      8.36514860  
H     -0.30097622      1.29932893     -1.73477087     -2.90286311e+00   -3.43867001e+00   -8.13756534e+00        3.52643576    -31.32851053     12.51042996  
H     -0.33312079      1.33696484     -1.69321998     -7.46491665e+00    1.50224422e+01   -7.10262910e+00       -2.88567039     31.87924251    -13.91603130  
H     -0.36019775      1.30271748     -1.66466076      1.12036842e+01   -2.33412720e-01    1.07637523e+01        6.21950454     26.95636132    -10.20903800  
H     -0.32423965      1.36280511     -1.73273879     -4.48195583e+00    4.91407983e-01   -7.22158918e+00        2.67338559     11.33439901     -2.76571929  
H     -0.46076170      1.25660148     -1.74378611     -6.28602480e+00   -9.86346374e+00   -7.09244176e+00      -33.19511262    -79.88474255      7.47694342  
H     -0.44347645      1.26654239     -1.61343975      2.13851566e+00   -7.93422721e+00   -1.44380923e+00      -26.99911139    -44.08677820     16.35020485  
H     -0.46441213      1.19794117     -1.63219523     -9.36590489e+00   -1.32255206e+00    6.97445819e-01      -31.85881408    -60.26433851     16.69367999  
H     -0.47103215      1.25411457     -1.59926035      1.04089578e+00    6.51401837e-02    3.54930229e+00       -9.10907128    -14.28857372      5.58277514  
H     -0.41579695      1.27462386     -1.55106465      4.07159758e+00    4.23509052e+00    4.26769123e+00       21.93948997     31.80383696    -21.78435460  
H     -0.32569772      1.30894703     -1.46706960      1.38046919e+01   -5.89098408e+00   -6.43775398e+00      -18.88320708    -26.61300359     27.38341942  
H     -0.28953299      1.33671556     -1.44706564      1.26622395e+00    1.11059572e+01    6.24994202e+00      -20.19848657    -28.65476759     26.31079105  
H     -0.23275014      1.36850755     -1.44844731     -1.48392678e+00    3.58809880e+00    3.76044315e+00      -10.83906335    -11.65801561     12.83452241  
H     -0.11018197      1.35111722     -1.63693427     -3.10589302e+00   -3.51758063e+00    2.28420883e+00       28.98981168     58.29409474    -43.92871978  
H     -0.14244176      1.43108257     -1.63724952      4.94045142e+00   -8.40820728e+00   -9.62034442e+00        6.72506715     16.97117943    -10.75852908  
H     -0.12252855      1.30600233     -1.64588419      1.67671445e+00    4.05626767e-01    8.03217780e+00       -8.29233532    -26.28887189     11.76754793  
H     -0.21057612      1.24191538     -1.65144146      5.02823223e+00    1.55163391e+01    8.99718111e+00      -30.47959857    -63.48782201     32.30692106  
H     -0.08348743      1.12283784     -1.63903719     -2.64664249e+00    1.12362909e+01    6.11086503e+00      -16.72300392    -72.49432534     29.03845661  
H     -0.18852201      1.06421231     -1.59925708      2.84337390e+00   -1.44979255e+00    1.42455903e+01      -25.03847744    -94.28910985     36.58367517  
H     -0.25785641      1.11910989     -1.68773692      4.97804452e+00   -1.31182595e+00   -1.64510635e+00      -40.86055847    -79.57493085     36.96534804  
H      0.30300748     -3.31037822      3.87769335      1.76594007e+01    6.96714791e+00   -6.64777621e-01        0.00005896     -0.00021493      0.00030283  
H      0.34869290     -3.32617547      3.82105248     -2.99051744e+00   -9.84843971e+00   -3.67374747e+00        0.00006471     -0.00023060      0.00033019  
H      0.33915917     -3.35354390      3.73521610      5.17858214e+00    2.06642568e+01    3.64604940e+00        0.00005252     -0.00022212      0.00032311  
H      0.15266510     -3.36410906      3.61241976      3.44313412e+00    1.01298926e+01    1.88394035e+00        0.00006485     -0.00027013      0.00035088  
H      0.22783794     -3.35286303      3.64649517      4.51496472e+00   -8.56717709e+00    9.10880770e+00        0.00005766     -0.00024333      0.00034589  
H      0.30255372     -3.31128073      3.59401850      9.06802689e-01   -9.06625185e+00    5.36045022e+00        0.00005253     -0.00018018      0.00023825  
H      0.36037120     -3.21802537      3.54122650     -2.59217343e+00    6.97307051e+00    7.37815677e+00        0.00003436     -0.00013766      0.00019095  
H      0.36555843     -3.41298303      3.60364027      2.45099173e+00   -9.93159982e-01   -3.54660637e-01        0.00004333     -0.00016340      0.00022587  
H      0.31058286     -3.40123743      3.54644880     -1.04438097e+01   -8.11491189e-01    2.07031075e+00        0.00001832     -0.00018470      0.00027856  
H      0.25207690     -3.41028035      3.45733485     -1.45656639e+01   -7.61801686e+00    2.47349376e+00        0.00001500     -0.00021579      0.00030954  
H      0.17090300     -3.42786995      3.39664973     -5.03046746e+00   -3.72371993e+00   -1.96085863e+00        0.00000332     -0.00029733      0.00041065  
H      0.24584164     -3.33106482      3.40007385     -9.60709765e+00    3.17543219e-02    8.70538902e+00        0.00000952     -0.00032644      0.00044432  
H      0.19590164     -3.31631568      3.43216137      6.69007755e+00   -5.52814053e+00    9.51548852e+00        0.00004254     -0.00032945      0.00046126  
H      0.14684565     -3.26942612      3.39733951      1.63136488e+00   -2.34250330e-01    7.87809935e+00        0.00003310     -0.00035815      0.00050219  
H      0.23077072     -3.30332434      3.45250046     -7.14781537e+00   -9.51853493e+00    1.00935249e+01        0.00004545     -0.00033930      0.00046770  
H      0.28060072     -3.32427199      3.59068462     -4.82341507e+00   -9.65862313e-01   -7.83837027e+00        0.00007147     -0.00025493      0.00036369  
H      0.21107571     -3.22109225      3.67634004      7.09760575e+00    3.33019356e+00   -1.27316533e+00        0.00004700     -0.00019092      0.00029085  
H      0.25363033     -3.03592215      3.80513848      3.01470568e+00    1.42489087e+00    1.17973851e+00        0.00004466     -0.00017450      0.00025777  
H      0.22620943     -3.08609901      3.75446615      2.20664576e-01    7.35499150e+00   -3.96459075e+00        0.00007616     -0.00022972      0.00032924  
H      0.21583248     -3.07165233      3.70567188      6.97225785e+00    1.58228161e+01    5.24080540e+00        0.00007754     -0.00025076      0.00036667  
H      0.24221337     -3.07988295      3.65236072      1.44203232e+01   -4.54261763e+00   -3.08803296e-01        0.00009261     -0.00026607      0.00037238  
H      0.15630902     -3.05789501      3.68173518      6.75526795e+00    6.27169275e+00   -5.72871526e+00        0.00011331     -0.00032289      0.00043494  
H      0.18216797     -3.11820225      3.65301017      2.03076976e+00   -6.45608519e+00    4.37757481e+00        0.00012600     -0.00042017      0.00049797  
H      0.10525369     -2.99030409      3.63880301     -4.85286703e+00    1.06974030e+01    2.76079203e+00        0.00012957     -0.00046781      0.00057792  
H      0.12255361     -3.08871598      3.64570290      7.67604717e+00    5.98403457e+00   -7.61796213e+00        0.00011064     -0.00040409      0.00046510  
H      0.09088516     -3.22760947      3.66116173     -6.20092110e+00    7.23544050e+00    2.66211560e+00        0.00006774     -0.00031651      0.00040639  
H      0.13932211     -3.17254739      3.66128044     -9.99877818e+00   -8.88170220e+00   -1.01372965e+00        0.00006548     -0.00030409      0.00040296  
H      0.14044293     -3.14435599      3.63077474     -7.65659360e+00   -3.28732157e+00   -8.24537621e+00        0.00006077     -0.00031291      0.00045432  
H      0.22762419     -3.16667180      3.67584594      9.62996195e+00    8.85570309e+00   -6.95920884e-01        0.00007815     -0.00028819      0.00040801  
H      0.21013162     -3.28425721      3.68412929      2.43504638e+01    2.17978474e+00   -3.41322273e+00        0.00005160     -0.00030065      0.00044887  
H      0.20250691     -3.26253683      3.79123183      4.11235322e+00   -1.88823492e+00   -1.74069572e+01        0.00005565     -0.00027664      0.00041851  
H      0.28882587     -3.28793602      3.79343294      9.12433701e+00    1.01122915e+01    2.93291611e+00        0.00006510     -0.00022072      0.00032063  
