3
100000  xi=   0.13923069  Mean pot=  -106.24582883  Cent pot=  -109.49537195 kcal/mol
H     -1.25097077      4.07964583      0.58968140       0.22051723
H     -1.85740950      4.50125642      0.62041053       0.15784524
H      3.10838027     -8.58090225     -1.21009193       0.19079084
3
200000  xi=   0.14758839  Mean pot=  -106.97042964  Cent pot=  -109.43893581 kcal/mol
H      4.13296687     -1.28864181     -0.10055924       0.18450590
H      4.73302022     -0.84130970     -0.01173332       0.17474548
H     -8.86598709      2.12995151      0.11229256       0.20718296
3
300000  xi=   0.12931677  Mean pot=  -106.15856988  Cent pot=  -109.47230022 kcal/mol
H     -0.03951805     -0.64365631      4.48497389       0.14266689
H     -0.70495102     -0.38893815      4.71760298       0.19536594
H      0.74446907      1.03259446     -9.20257687       0.18826871
3
400000  xi=   0.14160279  Mean pot=  -106.27029665  Cent pot=  -109.17559785 kcal/mol
H     -1.49343952     -3.31385014     -2.21333894       0.23662903
H     -1.50109961     -3.87331644     -2.65778322       0.19626830
H      2.99453913      7.18716658      4.87112216       0.18512198
3
500000  xi=   0.14076476  Mean pot=  -105.80152407  Cent pot=  -109.47942464 kcal/mol
H      0.47506700      2.98246423     -3.31080855       0.24932742
H      1.19162178      2.91615384     -3.51610169       0.16523871
H     -1.66668878     -5.89861807      6.82691025       0.16151993
3
600000  xi=   0.14236853  Mean pot=  -105.27028762  Cent pot=  -107.23016656 kcal/mol
H     -3.14734477     -0.13056357     -2.94735179       0.15136628
H     -3.69806926      0.43998026     -3.16410303       0.17875085
H      6.84541402     -0.30941669      6.11145482       0.21687532
3
700000  xi=   0.14484525  Mean pot=  -107.72174756  Cent pot=  -109.16836542 kcal/mol
H      2.07271367      4.07679303     -0.29841088       0.13546421
H      2.32136683      3.91471408      0.35126205       0.20427899
H     -4.39408050     -7.99150711     -0.05285117       0.18505885
3
800000  xi=   0.13800829  Mean pot=  -106.94324163  Cent pot=  -109.47292977 kcal/mol
H      0.28726231     -3.99063509     -2.19379562       0.17006264
H      0.67320435     -3.69477464     -2.76402838       0.16880871
H     -0.96046666      7.68540973      4.95782400       0.20659572
3
900000  xi=   0.13256361  Mean pot=  -106.75507659  Cent pot=  -109.36265925 kcal/mol
H     -3.44746649     -2.95528573     -0.37237677       0.20027254
H     -3.13243618     -3.43293578     -0.87265007       0.18099080
H      6.57990267      6.38822151      1.24502684       0.20685694
3
1000000  xi=   0.14566400  Mean pot=  -105.05072050  Cent pot=  -109.49002661 kcal/mol
H      1.67257369      4.29911435      0.38507200       0.18394538
H      2.22092445      3.88147976      0.64688334       0.19066211
H     -3.89349814     -8.18059411     -1.03195534       0.16044827
3
1100000  xi=   0.14221549  Mean pot=  -106.32659713  Cent pot=  -109.49563538 kcal/mol
H      1.85550181     -4.13133961     -0.67400182       0.12625560
H      2.15310495     -4.06512973     -0.00041674       0.13957848
H     -4.00860677      8.19646934      0.67441856       0.16692135
3
1200000  xi=   0.13907013  Mean pot=  -107.16340856  Cent pot=  -108.97637710 kcal/mol
H     -3.89370901      1.56766605      0.60674407       0.14781519
H     -4.65264819      1.70469975      0.50033215       0.20730935
H      8.54635720     -3.27236580     -1.10707622       0.25562538
3
1300000  xi=   0.14805015  Mean pot=  -106.08830905  Cent pot=  -109.49534817 kcal/mol
H      2.86168654      2.63133440     -2.18580408       0.18039178
H      3.10044763      2.18188978     -2.72194075       0.17407967
H     -5.96213417     -4.81322418      4.90774483       0.18821550
3
1400000  xi=   0.14852979  Mean pot=  -108.18208958  Cent pot=  -109.48911609 kcal/mol
H      0.78163622     -2.27645135     -4.30469832       0.20325640
H      0.58534701     -1.94211199     -3.66710398       0.18541444
H     -1.36698323      4.21856335      7.97180230       0.20190285
3
1500000  xi=   0.14840059  Mean pot=  -107.78449001  Cent pot=  -109.32698371 kcal/mol
H      2.58513696     -3.41519221      1.32583753       0.14843293
H      3.04368051     -3.03535850      1.73376206       0.21659677
H     -5.62881746      6.45055071     -3.05959959       0.19881524
3
1600000  xi=   0.14247489  Mean pot=  -106.94119394  Cent pot=  -109.17009250 kcal/mol
H      4.19116813      1.39989547     -2.09089334       0.15723324
H      3.83950192      0.79400323     -1.76980304       0.20143270
H     -8.03067005     -2.19389870      3.86069637       0.15927806
3
1700000  xi=   0.14219526  Mean pot=  -107.03255337  Cent pot=  -109.32969850 kcal/mol
H      3.92101865      0.27825754     -2.07026612       0.16669233
H      3.94242012     -0.23053834     -2.63740057       0.20263934
H     -7.86343877     -0.04771920      4.70766668       0.22723667
3
1800000  xi=   0.13630180  Mean pot=  -105.93983147  Cent pot=  -108.75668697 kcal/mol
H      4.08280365     -2.40938222     -1.09096188       0.20003423
H      3.91912098     -1.91367416     -0.50342527       0.13586647
H     -8.00192463      4.32305638      1.59438715       0.16851030
3
1900000  xi=   0.13389081  Mean pot=  -104.86741460  Cent pot=  -108.46478898 kcal/mol
H     -4.61760732      0.65508634      1.22482641       0.16128337
H     -4.30590466     -0.07211230      1.15327139       0.18167801
H      8.92351198     -0.58297404     -2.37809780       0.22139062
3
2000000  xi=   0.13790535  Mean pot=  -105.52009912  Cent pot=  -109.46554091 kcal/mol
H     -2.21924084     -2.11093561      3.45968866       0.23307905
H     -2.37711860     -1.41129356      3.68075533       0.21259394
H      4.59635944      3.52222917     -7.14044399       0.23855097
