3
100000  xi=   0.78007414  Mean pot=  -107.42265429  Cent pot=  -109.25105351 kcal/mol
H     -0.15406896      0.40102432     -1.52524976       0.25331047
H     -0.66460339      0.21879758     -1.05646471       0.16243139
H      0.81867235     -0.61982191      2.58171448       0.19079686
3
200000  xi=   0.78494895  Mean pot=  -107.30842454  Cent pot=  -109.00021882 kcal/mol
H      0.56529058     -1.44041255      0.77138368       0.18047897
H      0.23679286     -0.81863394      0.69515049       0.18530882
H     -0.80208344      2.25904649     -1.46653417       0.18531670
3
300000  xi=   0.77617002  Mean pot=  -106.08928568  Cent pot=  -106.00890543 kcal/mol
H      0.51132286     -0.22349340     -1.47115213       0.18589842
H      0.02386504     -0.53140773     -1.15439353       0.17915533
H     -0.53518790      0.75490113      2.62554566       0.19125009
3
400000  xi=   0.79558022  Mean pot=  -107.44215847  Cent pot=  -109.03284940 kcal/mol
H      0.30595147      1.04341058      1.06003298       0.13104766
H      0.71270969      0.75690965      0.55603148       0.18205173
H     -1.01866117     -1.80032023     -1.61606446       0.15585748
3
500000  xi=   0.79236618  Mean pot=  -106.16093554  Cent pot=  -109.50417382 kcal/mol
H      0.58066969      0.50329430     -1.07558129       0.23149484
H      0.16919180      1.06423359     -0.84305559       0.19851153
H     -0.74986149     -1.56752789      1.91863688       0.19805587
3
600000  xi=   0.79470288  Mean pot=  -106.89200251  Cent pot=  -109.34063168 kcal/mol
H     -0.42453655     -1.12568781     -0.74346706       0.18715639
H     -0.37835092     -1.20847924     -0.02912167       0.16890470
H      0.80288747      2.33416705      0.77258873       0.23045649
3
700000  xi=   0.78762810  Mean pot=  -106.78020627  Cent pot=  -109.37671124 kcal/mol
H     -0.67011664      0.65827602     -0.58480896       0.15787513
H     -1.03385269      0.61862814     -1.20838697       0.18619296
H      1.70396933     -1.27690416      1.79319594       0.17513915
3
800000  xi=   0.79007166  Mean pot=  -106.88562628  Cent pot=  -109.52458560 kcal/mol
H      0.37450044      0.36638365     -1.01146653       0.23282466
H      0.40688617      1.08408103     -1.18425627       0.18642030
H     -0.78138661     -1.45046469      2.19572280       0.18705163
3
900000  xi=   0.79706742  Mean pot=  -103.95702204  Cent pot=  -107.52551059 kcal/mol
H      0.98671090     -0.21120069      0.37201758       0.13807540
H      1.23468587     -0.72858548      0.95348669       0.19053942
H     -2.22139677      0.93978617     -1.32550427       0.18402867
3
1000000  xi=   0.80553374  Mean pot=  -106.88800273  Cent pot=  -109.32905281 kcal/mol
H      0.55448851      1.08492248     -0.03579823       0.23399234
H      0.11448460      1.23587674     -0.64253244       0.16077099
H     -0.66897311     -2.32079922      0.67833067       0.16812807
3
1100000  xi=   0.79602870  Mean pot=  -105.74586715  Cent pot=  -109.23006917 kcal/mol
H     -0.96786873      0.37755265      0.16658573       0.23667758
H     -1.56490394      0.67416514     -0.21743587       0.20267897
H      2.53277267     -1.05171779      0.05085013       0.18046607
3
1200000  xi=   0.79524779  Mean pot=  -106.06713303  Cent pot=  -108.83534356 kcal/mol
H     -1.42394831      0.03393350      0.75789431       0.14422621
H     -0.90544032     -0.36958713      0.50950671       0.20425252
H      2.32938862      0.33565363     -1.26740102       0.20738476
3
1300000  xi=   0.78509256  Mean pot=  -108.19572550  Cent pot=  -109.52650564 kcal/mol
H     -0.71356769     -1.05077455     -0.25210948       0.13739023
H     -0.28384645     -1.47046135      0.18292490       0.14287772
H      0.99741415      2.52123589      0.06918458       0.21056594
3
1400000  xi=   0.79011413  Mean pot=  -107.34069350  Cent pot=  -107.04995677 kcal/mol
H     -1.52720143      0.04448263      0.60465642       0.18533234
H     -0.86685051     -0.04372851      0.67797082       0.13509882
H      2.39405193     -0.00075412     -1.28262723       0.16180174
3
1500000  xi=   0.78117138  Mean pot=  -106.68337813  Cent pot=  -108.78330187 kcal/mol
H     -0.73372975     -0.99849618     -0.19611656       0.24316575
H     -0.35103310     -1.40525312     -0.62008645       0.21980498
H      1.08476284      2.40374930      0.81620301       0.16252141
3
1600000  xi=   0.79064686  Mean pot=  -106.64234362  Cent pot=  -109.42441052 kcal/mol
H      1.48811866      0.43382043      0.37509086       0.20658518
H      1.18985664     -0.11717855     -0.05105310       0.13236917
H     -2.67797530     -0.31664188     -0.32403776       0.20150589
3
1700000  xi=   0.79504312  Mean pot=  -106.78808854  Cent pot=  -109.28345922 kcal/mol
H      0.01281504     -0.98806742      0.77951122       0.14584436
H     -0.69189176     -1.05038166      0.65839486       0.13542922
H      0.67907672      2.03844909     -1.43790609       0.19417657
3
1800000  xi=   0.78932307  Mean pot=  -105.37386325  Cent pot=  -109.50237782 kcal/mol
H     -1.70567007      0.07030579      0.39369849       0.16642941
H     -1.03324907      0.18367839      0.12229212       0.19761573
H      2.73891914     -0.25398419     -0.51599061       0.22803648
3
1900000  xi=   0.78041785  Mean pot=  -106.18402219  Cent pot=  -109.13773705 kcal/mol
H      0.18147219      1.11909661     -0.78601116       0.21040256
H      0.80127417      0.77590027     -0.85647015       0.20427926
H     -0.98274637     -1.89499687      1.64248132       0.21935312
3
2000000  xi=   0.78834019  Mean pot=  -106.16458162  Cent pot=  -109.10223483 kcal/mol
H      0.94463113     -0.93792002     -0.65331159       0.20520412
H      1.18891751     -0.54193911     -0.03371990       0.17318882
H     -2.13354864      1.47985912      0.68703149       0.18600323
