96
100000  xi=   0.48797365  Mean pot=  -107.49392658  Cent pot=  -109.22182292 kcal/mol
H      0.61808284      2.15646805     -1.79843843     -2.46604447e+00   -7.58083873e+00   -3.79256241e+00        4.53310581      0.26899007      1.23674521  
H      0.60637126      2.16010163     -1.77854182     -1.20024476e+01   -8.48676170e+00    5.24224978e+00       15.81245548      3.28599314      4.05863783  
H      0.66301547      2.20236890     -1.71513596     -9.58067287e+00   -3.92172869e+00    3.38888204e+00       18.08055757      5.46251312      6.84658021  
H      0.60914599      2.22763429     -1.67434932      2.18597331e+00    2.05509084e+00   -7.60580001e+00       35.05980906     12.87326933     15.70916482  
H      0.64919092      2.16573930     -1.63808381     -9.36611157e+00    1.12890691e+01    1.31500746e+01       34.19258059      7.94285301     18.70687628  
H      0.59324068      2.32504175     -1.70898899      1.23623652e+00    4.91661453e+00    4.43966583e+00       18.03818925      5.28750773      7.77001998  
H      0.60477926      2.40614453     -1.75433344     -4.66673144e+00   -3.09951340e+00    1.80458832e+00       31.95897342      7.24006426     16.98340093  
H      0.56715871      2.33115353     -1.71395042     -3.52389485e+00   -1.06972140e+01   -1.56089896e+01       20.78668485      2.74982474     12.38718191  
H      0.46183072      2.18345038     -1.64522302     -6.45912369e+00   -6.81932397e-01   -5.07613488e+00      -43.64506330      7.60246655    -44.84979203  
H      0.36872916      2.28823923     -1.59363102      4.69811178e+00   -6.13893379e+00   -1.13542121e+01       17.72580230      0.81394173     15.54637022  
H      0.37021087      2.19639782     -1.72196900     -4.21407535e+00    4.66478520e+00    8.74201507e+00      -56.94634716      6.92883925    -31.17660773  
H      0.25877552      2.20365415     -1.70194939      6.04471047e+00    1.14473107e+01    8.44387828e+00     -117.15585580     40.66866303    -89.27945690  
H      0.19997932      2.13374683     -1.67219103      5.46135212e+00   -1.82275828e+00   -1.08241300e+01     -119.73606636     50.12828305    -68.35478903  
H      0.19042153      2.03032287     -1.73669412      3.13862938e+00   -4.37618104e+00   -1.24383232e+01        9.78611861     -6.35981467      4.91051505  
H      0.24132758      2.07393231     -1.65931772     -1.50393056e+01    1.06800516e+01    1.31315193e+01       57.13483140    -22.21050456     27.87567753  
H      0.24074583      2.13721181     -1.61014111      2.67618392e+00    4.21048513e-01    1.66815659e+01      -48.78479271      7.94137065    -30.75080323  
H      0.29958107      2.24390831     -1.64940093      8.15909979e-01   -1.77126972e+01   -2.83163443e+00      -37.66413753      2.52373141    -21.22521298  
H      0.25941552      2.25636848     -1.62597139     -9.45229966e+00    5.95052536e+00    8.03515423e+00      -45.48206347     -2.81416847    -24.02275817  
H      0.32417031      2.19088720     -1.56238028     -3.85306475e+00   -7.18071821e+00    6.03569743e+00       -1.38447506     -0.13453525     -0.76961520  
H      0.23506284      2.14877996     -1.55895612     -4.36010904e+00   -4.80069431e+00    6.70561718e+00      -99.51985435     -8.46246777    -67.80059976  
H      0.24646693      2.13312809     -1.58334072     -1.76272971e+00   -3.51139952e+00   -1.12848494e+01     -120.68221437     -6.81434504    -59.27958583  
H      0.33299625      2.17502614     -1.55538536     -3.11952992e+00   -3.49027552e+00    5.09660577e+00       23.32280796      6.51764469     11.74684024  
H      0.42756499      2.19334026     -1.58135185      5.07184594e+00    7.02007524e-01   -1.09335431e+01        5.02703424      1.14493215      2.20964947  
H      0.46184656      2.14740920     -1.53589471      5.56096495e-01    1.08177734e+01   -1.85445013e+00      -14.42744844      0.43032393     -6.92834136  
H      0.56185048      2.12371426     -1.51517679      9.50163871e+00    3.91624464e+00   -8.56778091e+00       29.84736383     -1.75432904     15.09711361  
H      0.63162062      2.05310526     -1.70215972      2.94825500e+00    1.47181488e+01    2.08910268e+00       48.48235030    -13.12587350     15.96080254  
H      0.60894671      2.21506400     -1.72188719     -8.50411751e+00    1.79701301e+00   -1.05310511e+01       53.17426527     -8.06212119     13.48681354  
H      0.53460940      2.11172735     -1.62251452      5.46324978e+00   -7.40838264e+00    7.92867387e+00       -0.85970503      0.26240400     -0.50120858  
H      0.48602018      2.13306126     -1.72680798      2.05056273e+00    1.50247691e+01    2.89117616e+00     -157.17327709     16.28885083    -62.87162052  
H      0.52202819      2.02262824     -1.60119766     -1.57702398e+00    1.28065098e+01    1.13951456e-02      -38.27370462      8.91883763    -28.67150768  
H      0.50700404      2.08355933     -1.55261061      2.51842556e+01    4.15006223e-02    2.91646319e+00       36.96683158     -0.98486516     26.01979122  
H      0.53903540      2.11758673     -1.71968209      1.56840886e+01    1.12247241e+01   -4.24615475e-04       22.57848759      2.65414896     10.09892858  
H     -0.10179820      2.11375367     -1.99484246      8.73237978e+00    7.49483767e+00   -6.72192125e+00       -4.53310354     -0.26895147     -1.23677932  
H     -0.11829424      2.00950956     -1.96454511     -8.16487730e+00    3.00678940e+00    2.92395738e-01      -15.81245300     -3.28595196     -4.05867375  
H     -0.02816510      1.99354970     -1.97686666     -4.57826460e+00    4.31866729e-01   -1.10642781e+01      -18.08055446     -5.46247039     -6.84661650  
H     -0.08353717      1.97329519     -1.98471864      2.15489229e-02    1.28136515e+00   -6.17998622e+00      -35.05980474    -12.87322365    -15.70920248  
H     -0.03782150      2.00614838     -2.01395096      7.56372785e+00   -4.48151320e+00    4.14513680e+00      -34.19257709     -7.94280774    -18.70691440  
H     -0.08818017      2.12529868     -2.00251437     -2.44327833e+00    5.63685905e+00    9.28648564e+00      -18.03818640     -5.28746374     -7.77005606  
H     -0.08295457      2.25034401     -2.11980419      1.16041121e+01   -3.53864769e+00    1.38210401e+00      -31.95897131     -7.24002111    -16.98343672  
H     -0.09369064      2.24373171     -2.10776357      7.87876444e+00   -2.52276383e-01    7.48953908e+00      -20.78668324     -2.74978575    -12.38721378  
H     -0.00878667      2.26542604     -2.12883039     -6.78028717e+00   -1.64553996e+00   -4.84724955e+00       43.64506730     -7.60242406     44.84975906  
H     -0.21215936      2.26156644     -2.10309842     -4.82752907e+00    4.23454912e+00    4.13989825e+00      -17.72580033     -0.81389883    -15.54640370  
H     -0.22109830      2.26834405     -2.04569486      5.78019621e+00   -5.92794334e+00   -3.62734567e+00       56.94634937     -6.92879629     31.17657411  
H     -0.21681691      2.36874773     -2.06437781     -8.99174043e+00   -4.50153279e+00    7.45050916e+00      117.15586012    -40.66861648     89.27942155  
H     -0.30907487      2.34686542     -1.96279910     -4.03066635e-01   -3.54889140e+00   -1.22593536e+01      119.73607074    -50.12823494     68.35475176  
H     -0.39519181      2.41090783     -2.03055005     -1.44594716e+01   -1.98117375e+00   -7.30754741e+00       -9.78611069      6.35986957     -4.91055912  
H     -0.48662125      2.35691468     -2.01447931     -4.17485675e+00    1.75867293e+01   -1.13072762e+01      -57.13482747     22.21055545    -27.87571764  
H     -0.33224733      2.23048542     -1.97131894      2.73023263e+00    9.42172957e-01    4.01826980e+00       48.78479443     -7.94132613     30.75076735  
H     -0.30626515      2.28450347     -1.99081870     -7.61764848e+00    2.47125279e-01    2.96660110e-01       37.66413899     -2.52368929     21.22517773  
H     -0.34924875      2.21870764     -1.94745606      1.18886611e+00   -4.34850078e+00   -3.91119301e+00       45.48206404      2.81421283     24.02271888  
H     -0.32005293      2.12827761     -1.92049037     -1.97464172e+00   -8.16909815e+00   -4.93591809e+00        1.38447624      0.13458314      0.76957329  
H     -0.29174976      2.10398344     -1.91786141     -1.03933197e+01   -7.98196608e-01   -6.35030514e+00       99.51985546      8.46251675     67.80055692  
H     -0.31883963      2.10120788     -1.86102150      5.80132758e-01   -2.24579436e+00    5.36894388e+00      120.68221495      6.81439654     59.27954134  
H     -0.34126686      1.98660150     -1.89498748      2.97371174e+00    9.21579684e+00    4.43962908e+00      -23.32280558     -6.51758965    -11.74688822  
H     -0.24327929      2.04055514     -1.87622634      3.86221259e+00    5.30163975e+00   -4.83640787e+00       -5.02703137     -1.14487965     -2.20969426  
H     -0.19004445      2.16685217     -1.84894473      5.55116849e+00    9.56354342e+00    2.46297825e+00       14.42745191     -0.43026947      6.92829449  
H     -0.14082990      2.16501596     -1.87060041     -8.99267966e+00    4.17291530e+00    3.32724830e+00      -29.84735979      1.75438170    -15.09715826  
H     -0.12628840      2.25829816     -1.95167011      1.10808291e+01   -1.94968658e+01   -1.47144500e+00      -48.48234604     13.12591865    -15.96084074  
H     -0.18673915      2.33570375     -1.92370059      1.31573695e+01   -1.27068658e+01   -2.09373254e+00      -53.17426210      8.06216588    -13.48685101  
H     -0.08389239      2.30048129     -1.98307655     -4.38579168e+00   -1.03344266e+01   -8.38072222e-01        0.85971062     -0.26235694      0.50116944  
H     -0.07880227      2.19159730     -1.95274521     -2.74636508e+00    9.23800751e+00    1.43460602e+01      157.17327943    -16.28880643     62.87158222  
H     -0.02231359      2.14947442     -2.00897318      7.16003498e+00    6.31440752e+00   -4.72294145e+00       38.27370974     -8.91879237     28.67147013  
H     -0.15447452      2.10118276     -2.01820495     -9.79741431e+00   -2.38912621e+00   -5.70370756e+00      -36.96682843      0.98490901    -26.01982902  
H     -0.16440678      2.03489613     -2.03431888     -6.91814091e+00   -1.04706708e+01   -1.90825494e+00      -22.57848563     -2.65410691    -10.09896570  
H     -0.17618800     -4.42398219      3.88418981      1.76728890e+01    6.50365751e+00   -2.03109517e-01       -0.00000228     -0.00003860      0.00003411  
H     -0.13051418     -4.43970048      3.82760417     -2.97617340e+00   -1.03191482e+01   -3.21724786e+00       -0.00000248     -0.00004118      0.00003592  
H     -0.14006037     -4.46715733      3.74173066      5.19412305e+00    2.02008638e+01    4.10679779e+00       -0.00000311     -0.00004273      0.00003628  
H     -0.32652431     -4.47766829      3.61895348      3.45581502e+00    9.66129026e+00    2.34291389e+00       -0.00000432     -0.00004568      0.00003766  
H     -0.25139130     -4.46643684      3.65304543      4.53109787e+00   -9.03467630e+00    9.56675122e+00       -0.00000350     -0.00004527      0.00003812  
H     -0.17663984     -4.42489261      3.60052833      9.19946032e-01   -9.53036914e+00    5.82165869e+00       -0.00000285     -0.00004399      0.00003608  
H     -0.11884057     -4.33156187      3.54778891     -2.57761783e+00    6.50203525e+00    7.83498456e+00       -0.00000211     -0.00004315      0.00003579  
H     -0.11365640     -4.52660340      3.61015355      2.46615679e+00   -1.45618286e+00    1.06335970e-01       -0.00000161     -0.00003898      0.00003186  
H     -0.16860629     -4.51478855      3.55298764     -1.04311525e+01   -1.28098299e+00    2.52879799e+00       -0.00000400     -0.00004249      0.00003297  
H     -0.22715113     -4.52386127      3.46387954     -1.45494375e+01   -8.08458216e+00    2.93202016e+00       -0.00000197     -0.00004290      0.00003348  
H     -0.30828634     -4.54147304      3.40316176     -5.01775434e+00   -4.18879322e+00   -1.49996379e+00       -0.00000221     -0.00004295      0.00003362  
H     -0.23337261     -4.44460398      3.40663676     -9.59197348e+00   -4.38573804e-01    9.16240984e+00       -0.00000432     -0.00004655      0.00003535  
H     -0.28330859     -4.42993985      3.43867419      6.70474410e+00   -5.99103598e+00    9.97644409e+00       -0.00000438     -0.00004811      0.00003726  
H     -0.33234590     -4.38297114      3.40388596      1.64427548e+00   -7.04357343e-01    8.33660475e+00       -0.00000792     -0.00005491      0.00004407  
H     -0.24845652     -4.41691464      3.45904149     -7.13170736e+00   -9.98444508e+00    1.05522949e+01       -0.00000393     -0.00005089      0.00004011  
H     -0.19858812     -4.43786473      3.59719820     -4.81084517e+00   -1.43152438e+00   -7.37775570e+00       -0.00000173     -0.00004452      0.00003588  
H     -0.26814482     -4.33463187      3.68289873      7.11305034e+00    2.86063005e+00   -8.16279479e-01       -0.00000146     -0.00004212      0.00003524  
H     -0.22557878     -4.14954197      3.81164223      3.02886327e+00    9.61818506e-01    1.64075803e+00       -0.00000057     -0.00004437      0.00003929  
H     -0.25298825     -4.19963225      3.76100844      2.34007308e-01    6.88484952e+00   -3.50648086e+00       -0.00000118     -0.00004789      0.00004191  
H     -0.26339596     -4.18524085      3.71219640      6.98819608e+00    1.53577726e+01    5.69958278e+00       -0.00000111     -0.00004898      0.00004284  
H     -0.23697474     -4.19345719      3.65886764      1.44329373e+01   -5.00886054e+00    1.51862139e-01       -0.00000058     -0.00005150      0.00004449  
H     -0.32291414     -4.17143069      3.68828114      6.77095853e+00    5.80245380e+00   -5.27181906e+00       -0.00000237     -0.00005503      0.00004798  
H     -0.29703627     -4.23181110      3.65950235      2.04466532e+00   -6.91928914e+00    4.83916294e+00       -0.00000287     -0.00005251      0.00004479  
H     -0.37394583     -4.10382394      3.64534015     -4.83908545e+00    1.02271417e+01    3.21838080e+00       -0.00000347     -0.00005446      0.00004687  
H     -0.35667079     -4.20230323      3.65221315      7.69177881e+00    5.51922110e+00   -7.15837628e+00       -0.00000404     -0.00005266      0.00004465  
H     -0.38830131     -4.34116734      3.66766728     -6.18833505e+00    6.76868046e+00    3.12245835e+00       -0.00000427     -0.00004514      0.00003820  
H     -0.33990287     -4.28608505      3.66781951     -9.98308819e+00   -9.35077510e+00   -5.56686080e-01       -0.00000317     -0.00004469      0.00003747  
H     -0.33875672     -4.25795902      3.63726347     -7.64304696e+00   -3.75072663e+00   -7.78355614e+00       -0.00000559     -0.00004706      0.00003914  
H     -0.25158017     -4.28019037      3.68238730      9.64392442e+00    8.38500034e+00   -2.38908458e-01       -0.00000235     -0.00004441      0.00003831  
H     -0.26909121     -4.39785501      3.69063848      2.43660249e+01    1.71588223e+00   -2.95314117e+00       -0.00000512     -0.00004526      0.00003755  
H     -0.27668013     -4.37609113      3.79774701      4.12509579e+00   -2.35571956e+00   -1.69473669e+01       -0.00000315     -0.00004385      0.00003780  
H     -0.19040079     -4.40148732      3.79997464      9.14019764e+00    9.64384184e+00    3.39026261e+00       -0.00000196     -0.00004205      0.00003713  
