3
100000  xi=   0.69339731  Mean pot=  -107.60030044  Cent pot=  -109.48175296 kcal/mol
H     -0.26359057      1.16514775     -1.90876573       0.17755544
H     -0.27006579      0.76421327     -1.27642600       0.18938884
H      0.53365637     -1.92936102      3.18519173       0.19079773
3
200000  xi=   0.68998483  Mean pot=  -107.78634565  Cent pot=  -108.00284478 kcal/mol
H     -1.60227144     -0.21924261     -1.32247932       0.22312785
H     -0.97822974     -0.48612694     -1.22880079       0.23224437
H      2.58050118      0.70536955      2.55128011       0.24873203
3
300000  xi=   0.68990336  Mean pot=  -107.16517656  Cent pot=  -108.99240665 kcal/mol
H      0.58160506     -1.64826158      0.59701068       0.15246118
H     -0.07997032     -1.78534420      0.38585303       0.15354283
H     -0.50163474      3.43360579     -0.98286371       0.16365478
3
400000  xi=   0.69217494  Mean pot=  -107.24768035  Cent pot=  -109.16497228 kcal/mol
H     -0.51881291     -0.53906629      1.62411083       0.15275403
H     -0.85248214     -1.15127250      1.29495358       0.18564152
H      1.37129505      1.69033879     -2.91906441       0.21990833
3
500000  xi=   0.69249134  Mean pot=  -105.36146512  Cent pot=  -108.90238660 kcal/mol
H      2.24057092      0.14208679     -0.38769722       0.17051791
H      1.46011124      0.10655583     -0.39609180       0.15172907
H     -3.70068216     -0.24864262      0.78378902       0.15232780
3
600000  xi=   0.68728295  Mean pot=  -107.14159150  Cent pot=  -109.40776713 kcal/mol
H     -1.82353291      0.90764034      0.42315532       0.18768814
H     -1.50078244      0.76534758     -0.21240489       0.16216594
H      3.32431535     -1.67298792     -0.21075043       0.16455944
3
700000  xi=   0.69767905  Mean pot=  -105.45943564  Cent pot=  -108.72876782 kcal/mol
H     -1.21962473      0.55251296     -1.25027500       0.18994502
H     -0.53075448      0.61126371     -1.62616733       0.16524629
H      1.75037921     -1.16377667      2.87644233       0.15349516
3
800000  xi=   0.68199745  Mean pot=  -106.85169874  Cent pot=  -108.90818833 kcal/mol
H      0.78959917      1.84996978     -0.05764729       0.26872651
H      0.08846790      1.77928018     -0.02820074       0.15876543
H     -0.87806707     -3.62924995      0.08584803       0.15471704
3
900000  xi=   0.69062748  Mean pot=  -107.03996531  Cent pot=  -109.47874876 kcal/mol
H     -0.80751174      1.15353249      1.08952290       0.19341991
H     -0.71532967      1.69215129      0.59897600       0.16262521
H      1.52284140     -2.84568378     -1.68849890       0.14616096
3
1000000  xi=   0.69835651  Mean pot=  -106.45859035  Cent pot=  -109.49929919 kcal/mol
H      0.47087007     -1.53072033     -1.21375446       0.14830458
H     -0.12537025     -1.08752507     -1.25545767       0.16115147
H     -0.34549982      2.61824540      2.46921213       0.15329370
3
1100000  xi=   0.70051271  Mean pot=  -106.87626958  Cent pot=  -109.26026060 kcal/mol
H     -0.86436823      0.46702107      1.26186148       0.13987009
H     -0.69583214      1.07611491      1.60279310       0.19378811
H      1.56020036     -1.54313597     -2.86465458       0.15822670
3
1200000  xi=   0.68590339  Mean pot=  -107.49988332  Cent pot=  -109.49794764 kcal/mol
H     -0.92949458      0.08556023     -1.77855387       0.17315833
H     -1.32287478      0.18382837     -1.16064589       0.17776187
H      2.25236936     -0.26938860      2.93919976       0.18252833
3
1300000  xi=   0.68753752  Mean pot=  -105.92455836  Cent pot=  -109.47653747 kcal/mol
H      0.82066415      2.04948324     -0.32843086       0.21374905
H      0.81336068      1.35974873     -0.03536607       0.16830984
H     -1.63402483     -3.40923197      0.36379693       0.23165229
3
1400000  xi=   0.67856915  Mean pot=  -108.14474221  Cent pot=  -109.38604671 kcal/mol
H      0.51390467      1.84031527     -0.65470689       0.19010037
H      0.42890286      1.32838042     -1.16144876       0.18656772
H     -0.94280753     -3.16869568      1.81615565       0.14377930
3
1500000  xi=   0.68703864  Mean pot=  -106.19934215  Cent pot=  -109.25699317 kcal/mol
H     -0.47283011      0.71095255     -2.00125184       0.24900867
H      0.01582105      0.66102087     -1.47760539       0.17104435
H      0.45700906     -1.37197342      3.47885723       0.16576505
3
1600000  xi=   0.69004449  Mean pot=  -104.37514030  Cent pot=  -109.40135858 kcal/mol
H     -0.53211806     -0.03005986      1.45016061       0.16528369
H     -0.99814553     -0.15179852      1.99375839       0.15977350
H      1.53026359      0.18185839     -3.44391900       0.23193890
3
1700000  xi=   0.68973406  Mean pot=  -105.86428555  Cent pot=  -109.25376436 kcal/mol
H      0.83090813     -0.56578610     -1.30673369       0.20071533
H      0.88128561     -1.31843222     -1.44402880       0.20758044
H     -1.71219374      1.88421832      2.75076249       0.18526576
3
1800000  xi=   0.68535665  Mean pot=  -106.45333763  Cent pot=  -109.30701617 kcal/mol
H      0.60488048     -1.50994331      0.07256953       0.18352000
H      0.34268844     -2.18042206     -0.18253270       0.17890709
H     -0.94756892      3.69036538      0.10996317       0.17589712
3
1900000  xi=   0.69761199  Mean pot=  -107.77354359  Cent pot=  -109.38535643 kcal/mol
H     -1.26135587      0.61639924     -1.18785790       0.23508275
H     -1.47953722      0.83434639     -0.53155489       0.17800695
H      2.74089309     -1.45074563      1.71941279       0.16553497
3
2000000  xi=   0.69877953  Mean pot=  -106.00746017  Cent pot=  -109.49582884 kcal/mol
H      0.89968589      0.04606559     -1.61183041       0.17295671
H      0.17142407      0.08764062     -1.76582962       0.19922643
H     -1.07110996     -0.13370621      3.37766003       0.14472239
