96
100000  xi=   0.04587320  Mean pot=  -105.76321052  Cent pot=  -106.07683858 kcal/mol
H      0.36747024      4.70344697     -0.07399520      4.33228050e+00    7.29902330e+00   -1.16613004e+01        6.39716737     34.99241704    -17.94523215  
H      0.27463352      4.70134214     -0.05348342     -3.53570611e+00   -3.20921040e+00   -7.37139148e-01       36.74594223     70.56866097    -41.66716368  
H      0.30143069      4.75871038      0.03413574     -8.71157773e+00    6.98042507e+00   -1.06893934e+00       15.86731310     18.78318873    -18.80081693  
H      0.24411759      4.70741198      0.00139798      2.33004425e-01    6.02283301e+00    4.13195495e-01        4.54945270      6.63669138     -4.09696737  
H      0.32184351      4.67910580      0.03238340      3.37789746e+00    1.62917368e+00    1.40211515e+01       -1.72566021     -3.26335354      2.23352857  
H      0.29056667      4.81967603      0.00521750     -2.81164927e+00    4.93650900e+00    1.17924028e+01        3.12015396      6.88137441     -4.79557917  
H      0.26029881      4.91756386     -0.07532349     -3.52499877e+00    5.66396723e+00    6.60100890e+00       -9.28381044    -16.00035002     10.99060418  
H      0.26296646      4.88636500     -0.05607500     -7.82700770e+00   -1.20372457e+01   -9.27997611e+00        5.03988560     10.01200417     -6.86477325  
H      0.22728106      4.85713096      0.04362769     -1.03942852e+00   -7.06299463e+00   -8.24701098e+00      -14.73173765    -21.72490890     23.74996378  
H      0.17538744      4.90857969      0.08406455      6.58172071e+00   -1.20946584e+01   -2.76751439e+00        1.20170034      4.24920583     -4.69541256  
H      0.28162348      4.81479482     -0.01911974      9.81469901e+00   -2.55088690e-01    4.97015006e+00       -2.88200801     20.32931579    -13.84299089  
H      0.20686058      4.89371168     -0.09058049     -3.38952529e+00    2.04933821e+00    1.03157703e+00      -13.87208799    182.63123178    -86.85055498  
H      0.20350303      4.86221607     -0.05521540     -1.02433408e+00   -3.26118420e+00   -1.71710179e+01      -81.13494179    222.46409768    -85.24655054  
H      0.07084013      4.80398493     -0.11850457     -1.38658999e+01   -4.68390351e+00   -9.02985790e+00       -3.92640057    148.52731706    -50.84329131  
H      0.03275592      4.74545324     -0.06083228     -1.36317066e+01    1.34842068e+01    5.89017094e-01        0.37352631     12.74938925     -4.09478758  
H      0.16161350      4.73559239     -0.10214907     -2.80879534e-01    5.81085872e+00    3.77572776e+00      -12.33517537     95.42893159     -6.93035561  
H      0.10611915      4.78222992     -0.13106332     -8.57277229e+00   -7.30494579e+00    4.98240528e-01        2.17189992     13.85524463     -0.92865633  
H      0.15098824      4.73916309     -0.11074829     -2.01695360e+00    7.62564906e+00    3.94002860e+00        0.59642582     -7.34001404      0.21408563  
H      0.16527921      4.66225525     -0.10257207      1.05096270e+00   -1.78256201e+01    3.82836058e+00       -0.03045952     -4.98127418     -0.35006074  
H      0.09636831      4.60813813     -0.01405706     -6.37869167e+00   -8.62335439e-01    9.94388851e-01       -4.14577391    -40.00649946      6.02171702  
H      0.07717238      4.61745915      0.00819436      5.63376209e+00    2.14831142e+00   -8.38277061e+00       -2.82324091    -20.32419911      3.53670382  
H      0.12500984      4.58682093      0.03426012      4.73655082e+00    1.14745650e+01    5.61063034e+00       -1.80129146    -18.30324363      4.67305060  
H      0.26474124      4.64417444     -0.00043468      7.61846344e+00    7.19167524e+00   -9.00791469e+00       -0.61573231     30.27077802     -5.49967217  
H      0.31890368      4.65074128     -0.04042330      9.47815792e+00    1.43359532e+01   -5.72959492e+00        0.83128090    -18.14763227     -0.62127206  
H      0.39021980      4.59730861      0.00994136     -4.00179416e+00    4.93008042e+00   -7.65665116e-01        2.13437106    -63.60856592      5.68320596  
H      0.45641829      4.71071585     -0.16975509      1.21912661e+01    1.54436224e+00   -2.84022758e-01      -13.00047002    108.95493764      2.68571421  
H      0.46084542      4.81313579     -0.14910595     -2.02147349e+00    2.97550052e+00    6.67954626e+00      -10.46137008     41.97030759     -1.06975337  
H      0.44824332      4.80549348     -0.05612025     -2.38499562e+00   -1.12428862e+01    3.89377202e+00      -42.96597837    206.85893183    -61.12006032  
H      0.43148726      4.71800244     -0.19088619     -6.05480304e+00    1.46205786e+01    1.66155800e+01      -19.01923202     97.56594029      4.93552608  
H      0.41601815      4.69764563     -0.14337747      6.59691934e+00    1.33402886e+01   -1.00493979e+01       -0.93015318    386.22426279      4.90744046  
H      0.34140581      4.64454216      0.01455883      6.46712964e+00   -7.86470245e-01    2.77193604e+00        0.03908892     35.61098922    -14.85184025  
H      0.38005814      4.66752044     -0.09087390      8.58019587e+00    2.90824450e+00   -7.69824253e+00      -13.38075741    139.78836493    -59.50994220  
H      0.47982551      5.31802874     -0.38917242      2.06459046e+00   -6.31362011e+00    1.36725624e+00       -6.39716729    -34.99241557     17.94523208  
H      0.54446202      5.21953365     -0.35944885     -1.65016952e+01   -1.20022682e+00    6.48866983e+00      -36.74594215    -70.56865948     41.66716361  
H      0.66446567      5.18845890     -0.39601612     -5.31983446e+00   -9.39854136e+00   -6.38684869e+00      -15.86731301    -18.78318727     18.80081688  
H      0.61248448      5.24478147     -0.33033140      2.10666790e+00   -1.61571692e+00   -1.39803688e+01       -4.54945260     -6.63668993      4.09696733  
H      0.62057984      5.24403884     -0.35427216     -5.05340630e+00    6.24967871e+00    3.49158003e+00        1.72566031      3.26335501     -2.23352862  
H      0.54549991      5.38192101     -0.38660693      1.73564729e+00    6.68830112e+00    2.15411183e+00       -3.12015388     -6.88137299      4.79557913  
H      0.59255102      5.49018994     -0.46865903      1.05917628e+01   -1.12314777e+01   -3.19760504e+00        9.28381052     16.00035143    -10.99060423  
H      0.54154285      5.43977196     -0.43552086      1.23098591e+01    2.15954772e+00    1.38046072e+00       -5.03988553    -10.01200286      6.86477321  
H      0.55675820      5.34301126     -0.48754319     -1.20679964e+01    5.80617943e+00   -1.45818515e+00       14.73173773     21.72491026    -23.74996382  
H      0.31223797      5.39248232     -0.45065252     -6.58439371e+00    1.12617245e+01   -4.22894791e+00       -1.20170027     -4.24920450      4.69541254  
H      0.19849031      5.40120557     -0.41842876     -8.11710731e+00    6.32122832e-02    3.64688758e-01        2.88200809    -20.32931445     13.84299087  
H      0.16612924      5.42995510     -0.34559185      5.71321642e-01    5.96719196e+00    1.50794535e+01       13.87208806   -182.63123041     86.85055496  
H      0.01843711      5.36964879     -0.24965976      6.21111536e+00   -1.03865807e+00   -5.69228410e+00       81.13494185   -222.46409627     85.24655052  
H      0.05538783      5.38851241     -0.31859774      2.67675530e+00   -6.02837052e-01   -1.04982346e+01        3.92640064   -148.52731560     50.84329129  
H      0.05300628      5.43664870     -0.28282713     -5.45572392e+00    1.58541385e+01    1.45347007e+00       -0.37352625    -12.74938780      4.09478756  
H      0.07788227      5.38336439     -0.14919235      5.81908028e+00   -3.37643749e+00    1.71439543e+01       12.33517544    -95.42893014      6.93035557  
H      0.21823375      5.49744480     -0.17900104      1.89936447e+00   -9.08979485e+00   -2.81649636e+00       -2.17189985    -13.85524317      0.92865628  
H      0.09020801      5.48716530     -0.13256521     -6.11746525e+00   -4.95181843e+00    4.04235447e-01       -0.59642575      7.34001566     -0.21408569  
H      0.16984037      5.40817598     -0.05015225     -6.74733582e+00    3.54636225e+00   -2.51112243e+00        0.03045960      4.98127582      0.35006068  
H      0.17799991      5.39587878     -0.13262657     -8.24793614e+00   -3.66490404e+00   -4.20460424e-01        4.14577399     40.00650115     -6.02171707  
H      0.18144937      5.36813763     -0.12243452     -6.68437294e+00   -6.83447143e+00    2.68639407e+00        2.82324099     20.32420079     -3.53670386  
H      0.19776195      5.32606816     -0.15447908     -4.75448443e+00   -4.67810044e+00    4.14247721e+00        1.80129155     18.30324535     -4.67305065  
H      0.25056778      5.34097365     -0.12703095      1.44511423e+00   -1.16314594e-01   -6.54166356e+00        0.61573241    -30.27077638      5.49967213  
H      0.28390541      5.41478589     -0.01426674     -3.23998029e+00    7.11584888e+00    6.55537763e+00       -0.83128079     18.14763398      0.62127202  
H      0.36185378      5.44267342     -0.06558907      4.63770910e+00    4.23081733e+00   -4.25591401e+00       -2.13437094     63.60856757     -5.68320599  
H      0.37990656      5.35194888     -0.15394885      1.96994676e+00   -5.25224101e+00    1.12095457e+00       13.00047014   -108.95493613     -2.68571426  
H      0.29240905      5.48889107     -0.16632983      6.80220995e+00   -1.28142961e+01   -1.90872484e+01       10.46137019    -41.97030612      1.06975332  
H      0.33349063      5.35796825     -0.21935851      3.59249191e+00   -5.42834058e+00    3.41724207e+00       42.96597848   -206.85893029     61.12006028  
H      0.30674323      5.35792151     -0.15851488      5.48945908e+00    1.07127102e+01    8.38728662e-01       19.01923212    -97.56593873     -4.93552613  
H      0.41474640      5.22570796     -0.13666781     -8.86716495e-01    6.85238716e+00    5.55712928e+00        0.93015328   -386.22426127     -4.90744052  
H      0.34211591      5.29146236     -0.25524427      9.05189516e+00   -4.90436427e-01   -5.34022044e+00       -0.03908882    -35.61098768     14.85184019  
H      0.32562134      5.23622002     -0.33297760      3.12893298e-01   -1.08300026e+00    6.00682818e+00       13.38075750   -139.78836340     59.50994213  
H     -0.50720309    -10.17520826      0.55408605      1.75426975e+01    5.42984376e+00   -4.24368846e-01       -0.00000009     -0.00000147      0.00000007  
H     -0.46152171    -10.19097406      0.49745511     -3.10704556e+00   -1.13889079e+01   -3.43461593e+00       -0.00000008     -0.00000149      0.00000007  
H     -0.47112065    -10.21842099      0.41158962      5.06783109e+00    1.91302382e+01    3.88881269e+00       -0.00000009     -0.00000146      0.00000005  
H     -0.65750479    -10.22890170      0.28884462      3.32256260e+00    8.58799215e+00    2.12208507e+00       -0.00000010     -0.00000145      0.00000004  
H     -0.58245218    -10.21773165      0.32287554      4.40482277e+00   -1.01027060e+01    9.35129306e+00       -0.00000010     -0.00000147      0.00000004  
H     -0.50764713    -10.17611684      0.27042846      7.89011108e-01   -1.06045001e+01    5.60008250e+00       -0.00000008     -0.00000141      0.00000004  
H     -0.44985674    -10.08284312      0.21763431     -2.70777548e+00    5.43276486e+00    7.61822830e+00       -0.00000008     -0.00000141      0.00000004  
H     -0.44471135    -10.27786091      0.28002050      2.33935763e+00   -2.52747602e+00   -1.12311730e-01       -0.00000007     -0.00000131      0.00000004  
H     -0.49958768    -10.26602874      0.22287402     -1.05643308e+01   -2.35385057e+00    2.30851347e+00       -0.00000008     -0.00000136      0.00000004  
H     -0.55821601    -10.27515442      0.13371260     -1.46753816e+01   -9.15285632e+00    2.71636703e+00       -0.00000007     -0.00000132      0.00000002  
H     -0.63928596    -10.29269597      0.07306448     -5.14936353e+00   -5.26314693e+00   -1.72169286e+00       -0.00000008     -0.00000134      0.00000002  
H     -0.56439721    -10.19589127      0.07647731     -9.72136995e+00   -1.50739406e+00    8.94616189e+00       -0.00000007     -0.00000137      0.00000002  
H     -0.61435687    -10.18119082      0.10854875      6.57733478e+00   -7.06298417e+00    9.75716498e+00       -0.00000007     -0.00000141      0.00000002  
H     -0.66332981    -10.13421811      0.07376607      1.51134127e+00   -1.77666944e+00    8.11693061e+00       -0.00000007     -0.00000146      0.00000003  
H     -0.57952364    -10.16820393      0.12887780     -7.25746935e+00   -1.10530453e+01    1.03363012e+01       -0.00000006     -0.00000145      0.00000003  
H     -0.52958103    -10.18908685      0.26710096     -4.94300566e+00   -2.50595561e+00   -7.59944833e+00       -0.00000006     -0.00000145      0.00000004  
H     -0.59917781    -10.08592272      0.35273395      6.98437551e+00    1.79220826e+00   -1.03217810e+00       -0.00000007     -0.00000146      0.00000005  
H     -0.55661925     -9.90078527      0.48152269      2.90079716e+00   -1.10762937e-01    1.42093811e+00       -0.00000007     -0.00000162      0.00000007  
H     -0.58397615     -9.95088569      0.43088092      1.01440645e-01    5.81317092e+00   -3.72556257e+00       -0.00000008     -0.00000164      0.00000006  
H     -0.59446388     -9.93652493      0.38203683      6.86249750e+00    1.42887592e+01    5.48318229e+00       -0.00000008     -0.00000168      0.00000005  
H     -0.56796223     -9.94468014      0.32876946      1.43003514e+01   -6.08316118e+00   -6.97288001e-02       -0.00000008     -0.00000169      0.00000004  
H     -0.65395533     -9.92272452      0.35811319      6.64296903e+00    4.73430504e+00   -5.48747869e+00       -0.00000009     -0.00000173      0.00000005  
H     -0.62806856     -9.98304780      0.32938927      1.91592044e+00   -7.99238272e+00    4.61883493e+00       -0.00000010     -0.00000164      0.00000004  
H     -0.70493910     -9.85508395      0.31520567     -4.97118073e+00    9.15615717e+00    2.99983875e+00       -0.00000012     -0.00000171      0.00000004  
H     -0.68773762     -9.95358065      0.32205939      7.56601530e+00    4.44969371e+00   -7.37523354e+00       -0.00000012     -0.00000165      0.00000004  
H     -0.71928467    -10.09239184      0.33756688     -6.32126396e+00    5.69466563e+00    2.90098577e+00       -0.00000011     -0.00000151      0.00000005  
H     -0.67095139    -10.03737977      0.33764945     -1.01104343e+01   -1.04187603e+01   -7.72207959e-01       -0.00000010     -0.00000147      0.00000005  
H     -0.66978026    -10.00918972      0.30715573     -7.77251500e+00   -4.82424104e+00   -8.00436375e+00       -0.00000011     -0.00000153      0.00000004  
H     -0.58258015    -10.03145740      0.35224565      9.51237954e+00    7.31462893e+00   -4.56883293e-01       -0.00000010     -0.00000156      0.00000006  
H     -0.60015549    -10.14912562      0.36049096      2.42400697e+01    6.45821599e-01   -3.17052284e+00       -0.00000010     -0.00000152      0.00000005  
H     -0.60766110    -10.12731921      0.46764297      3.99194236e+00   -3.42940270e+00   -1.71685773e+01       -0.00000010     -0.00000154      0.00000006  
H     -0.52145601    -10.15278238      0.46980378      9.01343241e+00    8.57588238e+00    3.17484369e+00       -0.00000009     -0.00000153      0.00000007  
