3
100000  xi=   1.08154080  Mean pot=  -104.70642181  Cent pot=  -107.94292628 kcal/mol
H     -0.62735319     -1.24873706     -0.49399078       0.29823249
H      0.17762784      0.28015201      0.13968816       0.15215092
H      0.44972535      0.96858505      0.35430261       0.14872002
3
200000  xi=   1.08072736  Mean pot=  -105.09808975  Cent pot=  -107.88692008 kcal/mol
H     -1.13599936     -0.86020781     -0.22289861       0.16994277
H      0.31433937      0.22062454     -0.06919501       0.17495979
H      0.82165998      0.63958327      0.29209362       0.18113927
3
300000  xi=   1.09225357  Mean pot=  -103.43595187  Cent pot=  -108.24971469 kcal/mol
H      1.05593402     -0.87041591      0.73613189       0.22398873
H     -0.36905241      0.20011888     -0.10406858       0.17875561
H     -0.68688162      0.67029703     -0.63206330       0.15541818
3
400000  xi=   1.07982328  Mean pot=  -104.08513873  Cent pot=  -107.33309266 kcal/mol
H     -0.62254572      1.23974865      0.35644803       0.20198513
H      0.03542377     -0.35752674     -0.25880556       0.15423505
H      0.58712195     -0.88222190     -0.09764247       0.18894637
3
500000  xi=   1.07798781  Mean pot=  -105.72162919  Cent pot=  -107.77323977 kcal/mol
H      0.59164710     -1.07194476     -0.73279518       0.16702863
H     -0.20068577      0.28144146      0.10897864       0.14147930
H     -0.39096133      0.79050330      0.62381654       0.19737875
3
600000  xi=   1.08396839  Mean pot=  -105.14632025  Cent pot=  -107.79386342 kcal/mol
H      0.55778662      0.41720337      1.25886847       0.18769346
H      0.03586408     -0.10846570     -0.44835600       0.15252619
H     -0.59365070     -0.30873767     -0.81051247       0.15087662
3
700000  xi=   1.07310978  Mean pot=  -106.08582031  Cent pot=  -107.11677325 kcal/mol
H     -0.45732409      1.22445379     -0.40804959       0.18573528
H      0.08990307     -0.33517740      0.01114207       0.16622404
H      0.36742102     -0.88927638      0.39690752       0.20231913
3
800000  xi=   1.07946777  Mean pot=  -105.96481437  Cent pot=  -107.47306513 kcal/mol
H     -1.03143774     -0.80513796     -0.54332974       0.19355171
H      0.22144831      0.20865159      0.19467084       0.17252606
H      0.80998943      0.59648636      0.34865890       0.19360077
3
900000  xi=   1.08734718  Mean pot=  -104.82159858  Cent pot=  -107.84495041 kcal/mol
H      0.53452813     -0.08452322      1.36332671       0.19159602
H     -0.22050397      0.10446371     -0.33066509       0.18835011
H     -0.31402416     -0.01994049     -1.03266162       0.17044569
3
1000000  xi=   1.09388707  Mean pot=  -104.77212602  Cent pot=  -107.80563120 kcal/mol
H      0.22711504      0.69143899     -1.32745539       0.24289612
H     -0.00404952     -0.16038564      0.38423212       0.23851022
H     -0.22306551     -0.53105335      0.94322327       0.17167749
3
1100000  xi=   1.07946457  Mean pot=  -104.29697151  Cent pot=  -107.63879632 kcal/mol
H     -0.76668929      1.10752532     -0.46062536       0.23811748
H      0.17638406     -0.26061996      0.17100393       0.20988325
H      0.59030523     -0.84690536      0.28962143       0.20077532
3
1200000  xi=   1.07000820  Mean pot=  -104.20163985  Cent pot=  -106.49331630 kcal/mol
H      0.59084393     -0.24055006      1.16365981       0.15308834
H     -0.23879239     -0.04259150     -0.26401339       0.19245554
H     -0.35205153      0.28314156     -0.89964641       0.19022058
3
1300000  xi=   1.08360839  Mean pot=  -105.44732523  Cent pot=  -107.56044796 kcal/mol
H     -0.70653418      0.35452083     -1.19484647       0.20219160
H      0.07226296     -0.08720024      0.39178829       0.19556340
H      0.63427122     -0.26732059      0.80305818       0.16303450
3
1400000  xi=   1.08750397  Mean pot=  -105.53992261  Cent pot=  -107.50709293 kcal/mol
H      0.45312412     -1.26679292      0.58264711       0.16053536
H      0.10789587      0.43559624     -0.25869184       0.18266824
H     -0.56101999      0.83119667     -0.32395527       0.14139797
3
1500000  xi=   1.08308194  Mean pot=  -103.99221993  Cent pot=  -107.95920469 kcal/mol
H     -0.93735831     -1.13475199     -0.27312176       0.14328799
H      0.25874092      0.24575222      0.08722113       0.15811821
H      0.67861739      0.88899976      0.18590062       0.17855914
3
1600000  xi=   1.08149830  Mean pot=  -104.21327485  Cent pot=  -107.17025007 kcal/mol
H      1.35547559     -0.25100882      0.18829042       0.25340290
H     -0.43624547     -0.08579097      0.07050444       0.18063324
H     -0.91923012      0.33679979     -0.25879485       0.14569812
3
1700000  xi=   1.07984983  Mean pot=  -103.64003374  Cent pot=  -107.74013452 kcal/mol
H      1.41057272     -0.20100329     -0.21058218       0.22854739
H     -0.37340329     -0.08725383      0.11420266       0.15402372
H     -1.03716943      0.28825712      0.09637953       0.15574595
3
1800000  xi=   1.07945164  Mean pot=  -103.77661848  Cent pot=  -107.69535821 kcal/mol
H     -1.31090624     -0.55798130     -0.24351366       0.16791119
H      0.31007398      0.13082562      0.20138456       0.14024580
H      1.00083225      0.42715568      0.04212910       0.15426475
3
1900000  xi=   1.07818421  Mean pot=  -104.04091299  Cent pot=  -105.96603289 kcal/mol
H     -1.32343592     -0.12210308      0.34616095       0.16430602
H      0.36574603      0.04555524      0.00496936       0.17227400
H      0.95768990      0.07654784     -0.35113031       0.21228127
3
2000000  xi=   1.08305915  Mean pot=  -102.26739534  Cent pot=  -106.41107461 kcal/mol
H     -0.01906636     -1.20039146      0.76259346       0.23971050
H     -0.22596501      0.27806800     -0.41531609       0.16875222
H      0.24503138      0.92232346     -0.34727737       0.18394026
