3
100000  xi=   0.64056707  Mean pot=  -106.85036088  Cent pot=  -109.24032244 kcal/mol
H      0.11572183      1.07391343     -1.61826790       0.19142867
H     -0.58832530      1.29840179     -1.82480874       0.21383244
H      0.47260347     -2.37231522      3.44307664       0.19079350
3
200000  xi=   0.64097224  Mean pot=  -106.45951716  Cent pot=  -109.34266757 kcal/mol
H     -1.55425539     -0.96524436      0.78572217       0.15806016
H     -1.67857911     -1.43002331      0.24655301       0.16479553
H      3.23283450      2.39526767     -1.03227518       0.20516505
3
300000  xi=   0.63712970  Mean pot=  -106.95508478  Cent pot=  -109.49879298 kcal/mol
H      1.28098074     -0.41387859     -1.17604569       0.18443483
H      1.77741157     -0.52659969     -1.71363150       0.16770058
H     -3.05839230      0.94047828      2.88967718       0.15926124
3
400000  xi=   0.62748411  Mean pot=  -107.30131303  Cent pot=  -109.42199631 kcal/mol
H      0.74100642      1.85841740     -1.52611268       0.16864404
H      0.26335773      1.39832709     -1.22536364       0.14746667
H     -1.00436414     -3.25674449      2.75147632       0.18880350
3
500000  xi=   0.63228643  Mean pot=  -106.80626189  Cent pot=  -109.02620898 kcal/mol
H      1.05064343     -1.44668504      0.55548782       0.21760205
H      1.64695400     -1.78711574      0.37869221       0.19382214
H     -2.69759744      3.23380078     -0.93418003       0.20475333
3
600000  xi=   0.63813548  Mean pot=  -108.26653637  Cent pot=  -109.49863013 kcal/mol
H     -1.35936045      0.84623212     -1.40427048       0.17794826
H     -1.80467921      0.55333083     -0.88803379       0.18978201
H      3.16403967     -1.39956294      2.29230427       0.21196947
3
700000  xi=   0.64251386  Mean pot=  -107.50318729  Cent pot=  -108.66418027 kcal/mol
H     -0.10962920     -2.04421437     -1.14953483       0.17284375
H     -0.08443334     -1.79801802     -0.49601004       0.21301997
H      0.19406254      3.84223239      1.64554486       0.19578945
3
800000  xi=   0.64463133  Mean pot=  -106.85204577  Cent pot=  -109.47552084 kcal/mol
H     -1.50948012     -0.06141103     -1.77720653       0.13171084
H     -1.41046791     -0.44526507     -1.15924464       0.13082268
H      2.91994803      0.50667611      2.93645116       0.21363623
3
900000  xi=   0.64270425  Mean pot=  -105.67669022  Cent pot=  -108.71584922 kcal/mol
H      0.15923199      2.36889047     -0.21538068       0.18326055
H     -0.12754561      1.82772751      0.12379030       0.17565571
H     -0.03168638     -4.19661798      0.09159037       0.17254840
3
1000000  xi=   0.64243975  Mean pot=  -108.17388143  Cent pot=  -109.05536692 kcal/mol
H     -0.31610431     -1.65536090     -1.07930337       0.14691539
H     -1.00529478     -1.52396676     -1.18836315       0.12262487
H      1.32139909      3.17932766      2.26766653       0.20768623
3
1100000  xi=   0.64307917  Mean pot=  -106.02775236  Cent pot=  -109.33245473 kcal/mol
H     -1.92089024      0.40671260      0.55754290       0.21559214
H     -2.14873054      0.04387918     -0.07273294       0.21992849
H      4.06962078     -0.45059178     -0.48480996       0.14117079
3
1200000  xi=   0.63241373  Mean pot=  -106.26746623  Cent pot=  -108.04147156 kcal/mol
H      0.82271675      1.76155692     -1.50000270       0.19221913
H      0.89291302      1.27690603     -1.01977619       0.19227537
H     -1.71562977     -3.03846295      2.51977888       0.21152491
3
1300000  xi=   0.64373793  Mean pot=  -106.14957661  Cent pot=  -109.48288786 kcal/mol
H     -0.69957398      1.63334633      0.58193656       0.25038272
H     -1.41992322      1.75880372      0.66102036       0.16947260
H      2.11949720     -3.39215005     -1.24295692       0.12469965
3
1400000  xi=   0.63936944  Mean pot=  -105.34187737  Cent pot=  -109.49870920 kcal/mol
H      0.05845568     -1.16926291      1.70362070       0.16436166
H      0.05666730     -1.74722624      1.23885492       0.17466761
H     -0.11512298      2.91648915     -2.94247561       0.24214839
3
1500000  xi=   0.64757427  Mean pot=  -106.89973256  Cent pot=  -108.97638175 kcal/mol
H     -0.29522036      1.46500762     -0.93706534       0.17170742
H     -0.27082876      1.84217436     -1.61775337       0.20108681
H      0.56604912     -3.30718199      2.55481871       0.18849562
3
1600000  xi=   0.64437946  Mean pot=  -105.40326126  Cent pot=  -108.72875380 kcal/mol
H     -0.03091520      1.97877466      0.60420704       0.18435860
H      0.47358690      1.70916404      1.14450678       0.21446427
H     -0.44267170     -3.68793871     -1.74871382       0.20920312
3
1700000  xi=   0.64149783  Mean pot=  -107.24950269  Cent pot=  -109.43933400 kcal/mol
H     -2.02090843     -0.82576817      0.45295654       0.26525158
H     -1.70791155     -0.36720295      0.96275578       0.23719609
H      3.72881998      1.19297112     -1.41571232       0.19642075
3
1800000  xi=   0.64109859  Mean pot=  -107.30120645  Cent pot=  -109.19263990 kcal/mol
H     -1.77315071     -0.68234450     -0.94436336       0.17955995
H     -1.44189126     -0.24041844     -1.48037010       0.13673773
H      3.21504197      0.92276295      2.42473345       0.21609898
3
1900000  xi=   0.64040507  Mean pot=  -107.61223019  Cent pot=  -108.79189288 kcal/mol
H      1.06356402     -0.21066664      1.62250081       0.18253029
H      1.59097063      0.25182947      1.59309681       0.13847802
H     -2.65453466     -0.04116283     -3.21559763       0.17718728
3
2000000  xi=   0.64904036  Mean pot=  -106.73735485  Cent pot=  -109.28566951 kcal/mol
H      0.83338284      1.21675969     -0.97592059       0.14826856
H      0.82649362      1.87651185     -1.26278799       0.14564517
H     -1.65987645     -3.09327154      2.23870858       0.16908110
