96
100000  xi=   0.91277921  Mean pot=  -106.86485358  Cent pot=  -108.83707395 kcal/mol
H     -0.23223063     -0.16203284     -0.28956164     -1.04005911e+01   -2.03859784e+00   -1.50964094e+00       13.24265866     -0.69460587     38.43152744  
H     -0.22440126     -0.23994324     -0.28391519     -3.45282059e+00    2.37556690e+00    5.29879041e+00       13.31832899     -3.46220148     32.66457528  
H     -0.08966631     -0.20477274     -0.30530110     -6.83345568e+00   -2.96853810e+00    5.61550114e+00       13.92815428     -0.24009224     21.71112870  
H     -0.05675969     -0.17394327     -0.29133572      2.63050400e+00   -3.63985057e+00    4.12927482e+00       52.29883609      1.16406909     58.29788313  
H     -0.09744110     -0.18345541     -0.34162519      5.24423289e+00    3.81550715e+00    9.28777382e+00      -17.19325400     -1.35688251    -22.32948896  
H     -0.13316269     -0.04374143     -0.37875016     -6.21612103e+00    3.87819303e+00    1.06161262e+01       -7.39527696     -0.70512664     -8.12492843  
H     -0.15168770      0.01124314     -0.42929948      2.35229827e+00   -3.28233558e+00    1.27105367e+01        3.20888402     -0.30848360      4.57123479  
H     -0.18410872     -0.03682002     -0.35651321      1.58012463e+00   -1.14820131e+01    5.52878114e+00       24.89990546     -1.93561982     40.14129061  
H     -0.23848610     -0.10031838     -0.31929242      1.80917045e+00    8.99684420e+00   -1.00523714e+01       18.62246113     -2.95643923     39.09547459  
H     -0.35131093     -0.11977494     -0.29424148     -1.55351469e+00   -2.38317109e+00   -1.94595335e+00       28.83657371    -13.59184095     50.82105203  
H     -0.37637119     -0.19430162     -0.29808635      5.34957209e+00   -6.41076239e+00    5.62396646e+00       34.45272080    -24.98009198     71.44393953  
H     -0.51188649     -0.08998147     -0.32373965      8.33437774e-01    9.61140519e+00    1.51489960e+01       12.29771528    -12.68029713     47.96737893  
H     -0.57140475     -0.15887097     -0.36050996      1.42076120e+01   -5.02415434e+00   -1.26304151e+01      -22.03344993     24.72906956    -58.36035499  
H     -0.71941271     -0.12634244     -0.37805175      6.91597835e-01   -3.38485009e+00   -5.56515367e+00       -0.24490889      8.42185188    -32.86293292  
H     -0.63431278     -0.08401093     -0.29173451     -1.52059844e+00    2.16348575e+01    2.25910018e+00        9.26172838     -1.86859421     30.60668042  
H     -0.47695195     -0.13668307     -0.32619299      1.44059009e+00    4.10775844e+00    2.10233221e+01      -34.02876616      8.83423208    -49.75736645  
H     -0.44389417     -0.01712252     -0.26427416     -3.33713404e+00   -1.28012864e+01   -3.45839020e-01       19.30938163     -1.34212922     41.41439686  
H     -0.46691040     -0.01222236     -0.24210515     -5.40788085e-01    3.39260015e-01   -1.11068374e+00       20.99097169      3.18904466     37.49566938  
H     -0.38603962      0.07155303     -0.25776104     -1.53316402e+00   -1.14686134e+01    1.00615956e+01       27.95339675     21.44603012     37.56740537  
H     -0.47467486      0.09389564     -0.26863937     -1.14500424e+01    4.63176575e+00    6.68093501e+00       18.67193557     26.57373272     32.80145823  
H     -0.43390653      0.04502548     -0.19648585      6.24121446e+00   -7.19505312e+00   -3.22952832e+00       39.72346917     33.12255451     59.96250797  
H     -0.38902514     -0.10257386     -0.29602060      6.13281932e+00   -5.84444641e-01    3.72317208e+00      -38.91791996    -13.71578726    -41.97196138  
H     -0.29265259     -0.13909902     -0.29458342     -3.46228807e+00    5.74228499e+00   -4.70169379e+00      -54.59107157     -6.12144761    -55.85485438  
H     -0.28495754     -0.09288769     -0.22228730     -2.02200100e+00    1.07214673e+00   -6.80891299e+00      -47.85642569     -8.02227026    -65.38362184  
H     -0.11162392     -0.19454291     -0.18373630     -1.83905835e+00    6.75271602e+00   -4.70822814e+00       40.67766252     -2.94266648     41.04406026  
H     -0.17385558     -0.23248961     -0.28946054      1.83800764e+01   -1.65325814e+00   -4.27243127e+00        4.91162140     -1.30354323      7.83686615  
H     -0.20281853     -0.08232722     -0.22443407     -3.98103867e+00   -7.21707885e+00   -4.93190882e+00       30.34333900     -7.58223738     56.48839450  
H     -0.30630053     -0.11028726     -0.17541698      8.28876408e-01    5.93230899e+00    6.01983553e+00       10.39836964     -0.47097599     45.34883991  
H     -0.31125879     -0.18584894     -0.27290735     -7.74484668e-01    1.01375177e+01    9.82566482e+00       -2.14288182      2.16262368     -9.80701649  
H     -0.30336328     -0.25521762     -0.22259377     -4.88085971e-01    9.93855298e+00    9.10711020e-01        0.82568802      0.24056726      1.21286942  
H     -0.37772253     -0.21552258     -0.18528842      1.37078789e+01   -7.38650943e+00    4.39334896e+00        3.48646229     -1.15332779     18.50433433  
H     -0.33631126     -0.24553824     -0.28098753      1.23064936e+01   -5.75780759e-02    1.59229662e+00        6.47640130     -2.76620782     27.15427613  
H     -0.48991470     -0.14662708     -1.04740049      1.92936327e+01   -1.46157980e+00   -5.97881065e+00      -12.47513453      0.85982651    -37.29296719  
H     -0.51837451     -0.15924765     -1.01439655     -1.84371492e+01   -1.16450742e+01    5.27998784e+00      -12.43057909      3.65550619    -31.42786355  
H     -0.50725720     -0.19285213     -0.95922178     -6.94422684e+00   -1.59517602e+00   -1.02104051e+01      -12.55829241      0.55474816    -19.78943249  
H     -0.65364427     -0.18611494     -0.95470154      1.97721609e-01    5.26126673e+00   -1.69639619e+01      -50.34358415     -0.78982758    -55.52875034  
H     -0.52848540     -0.22115694     -0.90465837     -8.20344164e+00    1.11947740e+00    1.24550401e+01       19.35759386      1.87212127     25.44152555  
H     -0.61807876     -0.09320409     -0.91985184      6.72375095e+00    1.67143889e+00    5.40979934e+00        9.30823440      1.00716574     10.53591676  
H     -0.57113618      0.07777449     -1.04511673      2.85174104e+00   -2.34808633e+00   -5.31971150e+00       -1.66488217      0.50191554     -2.61028940  
H     -0.61052931     -0.00232247     -1.04754685      5.27088106e+00   -8.89339669e-01   -1.14111462e+01      -23.65223658      2.01812042    -38.60858686  
H     -0.57970657     -0.04304809     -1.04636422     -1.61052298e+01   -9.39890701e+00    3.04378894e+00      -16.93935717      3.11126256    -37.02216977  
H     -0.75173826      0.07377822     -1.00609279      2.60179174e+00    1.02444303e+00   -2.70401550e+00      -26.87547551     13.66769471    -48.64126135  
H     -0.75062960      0.08065811     -1.07859141     -3.51684852e+00    7.52154449e+00    7.10547097e-01      -32.49110357     25.00234831    -69.14577164  
H     -0.70352496      0.11631051     -1.09379583     -4.63810328e+00   -2.90536457e+00    4.08135936e+00      -10.65645381     12.72806630    -46.08382954  
H     -0.79794343      0.08611489     -0.94848973     -7.60221298e+00    3.38356027e-02   -8.62862606e+00       23.81399662    -24.57655800     60.27840065  
H     -0.73792447      0.04359516     -1.06173886     -1.20650510e+01   -1.00127446e+00   -1.04178371e+01        1.92033580     -8.25454153     34.75752652  
H     -0.85443334     -0.03611108     -1.04449544     -1.60343070e+01    3.33892926e+00    2.04501629e+00       -8.03977206      1.99852759    -29.30251469  
H     -0.85908143     -0.04039571     -0.88185794      3.68804679e+00   -2.99139724e+00    2.33462803e+00       35.27032700     -8.68613031     51.07449368  
H     -0.78320512      0.00804596     -0.99913791     -2.48723617e+00   -8.47946331e+00    1.90908915e+00      -18.27136731      1.47627737    -40.11478214  
H     -0.85761399     -0.07083610     -0.94368130     -7.15194621e+00    3.99586572e+00    8.34819388e+00      -20.41360557     -3.03239332    -36.80465524  
H     -0.83085190     -0.27271407     -0.85620370     -2.60411096e+00   -6.67682739e+00   -5.96358713e+00      -27.08884994    -21.20753250    -36.49687826  
H     -0.79991912     -0.37594957     -0.84350561     -3.28190177e+00   -1.16193779e+01   -3.93006564e+00      -17.70419962    -26.24759656    -31.63018787  
H     -0.88115520     -0.32964728     -0.87292019     -7.13783644e+00    3.78638991e+00   -7.61240163e-01      -38.78398078    -32.83308333    -58.91623262  
H     -0.83991725     -0.26150011     -0.78357176     -5.12093939e+00    4.49841927e+00    6.52711573e+00       40.28796017     14.20171716     43.65707778  
H     -0.75681194     -0.19287974     -0.77106105      1.28001297e+01    4.93995318e+00   -1.06881917e+01       56.48317112      6.76605409     58.18321292  
H     -0.67587308     -0.16094714     -0.75566980      1.00036482e+01    1.48679436e+01    7.76166369e+00       50.47974467      9.16993148     68.77068051  
H     -0.70018016     -0.14536886     -0.77367896      9.91390199e-01    5.33402626e+00   -1.39922365e+00      -38.15630249      4.02740509    -37.74805139  
H     -0.55984438     -0.07149569     -0.91489342     -1.56050241e+00   -6.32246266e+00    5.40911763e+00       -2.40152311      2.12256785     -4.07426290  
H     -0.60065888      0.02192192     -0.96924276      8.45795831e+00   -3.58065793e+00   -7.09668187e+00      -28.22890869      8.11223609    -53.46528287  
H     -0.47720715     -0.09617463     -0.96794684      1.36916815e+00   -2.22408583e+01    2.58239259e+00       -7.89110757      1.35376677    -41.79198951  
H     -0.49571911     -0.06097380     -0.96711054      1.51444153e+00    9.53991477e+00    8.69412568e+00        4.03705455     -1.61505318     12.45710114  
H     -0.41479276     -0.16138588     -0.95054283      4.57975273e+00    1.02868136e+01   -2.04706151e+00        1.34855283      0.39760741      1.95991032  
H     -0.50233383     -0.16033022     -0.93870614      3.40091185e+00    5.21515886e-01   -5.18870870e+00       -1.95562541      1.54869522    -16.32072689  
H     -0.50939860     -0.16434031     -1.03669261     -4.80927636e+00    3.81037426e+00    1.20999249e+00       -5.51440405      3.00004511    -25.78036889  
H      1.06224987      0.15489465      1.42788588      1.50455010e+01    9.91824844e+00   -3.23042033e+00       -0.76752413     -0.16522064     -1.13856025  
H      1.10030916      0.12908063      1.38281568     -1.25098677e+00   -6.52780240e+00   -8.26023202e+00       -0.88774990     -0.19330470     -1.23671172  
H      1.09175459      0.12642584      1.31425824      4.80932302e+00    2.12712905e+01    1.02567443e+00       -1.36986187     -0.31465591     -1.92169621  
H      0.90944961      0.08327437      1.20592393      2.83846517e+00    1.13802157e+01    1.39171593e+00       -1.95525194     -0.37424151     -2.76913279  
H      0.98592816      0.11009837      1.24728501      5.68589125e+00   -7.16514106e+00    5.11994421e+00       -2.16433987     -0.51523876     -3.11203659  
H      1.07966183      0.16237987      1.18764115     -7.94700734e-01   -4.52536428e+00    3.52066041e+00       -1.91295744     -0.30203910     -2.41098834  
H      1.12578494      0.23589628      1.14805311     -8.42286354e-01    5.49539784e+00    3.63209186e+00       -1.54400185     -0.19343195     -1.96094539  
H      1.15448834      0.08745903      1.19250934     -3.33137317e-02   -3.73159154e-02   -2.13158771e+00       -1.24766888     -0.08250060     -1.53270376  
H      1.10258923      0.07740938      1.14458909     -9.37094919e+00   -3.20251319e+00   -3.85850359e-01       -1.68310396     -0.15482333     -2.07330482  
H      1.03249772      0.07198116      1.06747762     -1.57297089e+01   -8.63369453e+00    3.68257834e-01       -1.96109820     -0.07585376     -2.17979068  
H      0.96781856      0.03689069      1.01218867     -5.28362642e+00   -6.56086609e+00   -2.72093057e+00       -1.96161723     -0.02225633     -2.29816789  
H      1.02398166      0.10146479      1.05783015     -8.73297589e+00   -1.98486040e-01    5.82772610e+00       -1.64126147     -0.04776917     -1.88354939  
H      0.97697875      0.12345687      1.11269547      5.15463494e+00   -6.37481705e+00    8.15098877e+00       -1.78054670     -0.15251156     -1.91804566  
H      0.92017906      0.14096369      1.07642775      1.70050591e+00   -2.67186360e+00    4.57412506e+00       -1.67542691     -0.16731036     -1.89459359  
H      0.99503096      0.13409773      1.12147039     -8.79398768e+00   -6.69519356e+00    8.07276893e+00       -1.22195632     -0.12993338     -1.30416574  
H      1.04592745      0.10688231      1.22380042     -4.53165730e+00   -1.18216436e+00   -1.00368479e+01       -1.24156084     -0.14810176     -1.31712723  
H      0.95226249      0.20286128      1.30607636      6.13636369e+00    6.67539347e+00   -4.91322519e+00       -1.03801432     -0.13414815     -1.29961472  
H      1.00914183      0.40861359      1.42401454      2.45562229e+00   -1.77309339e+00   -1.47393947e+00       -0.57736612     -0.15665135     -0.69101414  
H      0.96797958      0.32065391      1.39209521     -1.45287911e+00    9.68389942e+00   -6.50407866e+00       -0.86454681     -0.23849762     -1.07052710  
H      0.95454996      0.34962150      1.34752271      6.96335801e+00    1.67426082e+01    3.30412425e+00       -0.96773595     -0.32613616     -1.17127035  
H      1.00569075      0.32546540      1.28392067      1.41489939e+01   -7.35435511e+00   -1.77407045e+00       -0.93948840     -0.28947118     -1.04627535  
H      0.89775791      0.35428439      1.31748648      5.61323544e+00    7.61283729e+00   -5.98464781e+00       -1.37004021     -0.48592991     -1.68511640  
H      0.93673702      0.33407583      1.26758300      1.63889214e+00   -1.15989818e+01    4.45785728e+00       -1.89209955     -0.64460647     -2.32835854  
H      0.85864827      0.46423756      1.23844810     -6.71013323e+00    1.46713635e+01    2.87499638e+00       -2.62331898     -1.14766122     -3.38705868  
H      0.87619506      0.42638371      1.22385300      9.04485119e+00    1.51775941e+00   -6.29161072e+00       -2.52136004     -1.08473861     -3.29600887  
H      0.85070101      0.27418133      1.21819817     -8.97624782e+00    9.96913996e+00    2.60284696e+00       -2.51009829     -0.81902462     -3.76260325  
H      0.88579057      0.32510963      1.21589555     -9.80748643e+00   -9.46475847e+00   -1.15175645e+00       -2.11443031     -0.52999871     -3.02311163  
H      0.89548375      0.36071557      1.17505109     -8.76499548e+00   -5.18533702e+00   -9.29646676e+00       -2.50726207     -0.88279079     -3.55685040  
H      0.96258093      0.29126254      1.24284027      8.21116083e+00    1.29727946e+01   -1.52044974e+00       -1.89417273     -0.54757050     -2.65008465  
H      0.94882137      0.19089430      1.25360888      2.58537496e+01    6.07708933e-01   -6.52873713e+00       -2.17424085     -0.63817467     -3.17277973  
H      0.95587071      0.18446040      1.35093004      2.40616967e+00    2.16539101e+00   -1.89395990e+01       -1.53083688     -0.39536743     -2.18360744  
H      1.02995401      0.16090305      1.36364248      1.04075198e+01    6.64259921e+00   -1.31972818e+00       -0.96199725     -0.23383729     -1.37390724  
