96
100000  xi=   0.91621439  Mean pot=  -104.63759788  Cent pot=  -108.55863180 kcal/mol
H     -0.21679091     -0.23587515     -0.22898309     -3.76733449e+00    1.26272871e-01   -1.16346677e+01        7.39364794      5.59658930     20.39210418  
H     -0.21643988     -0.36416443     -0.17239015     -3.18774615e+00    2.12988026e+00    6.37195509e+00       11.48442162      1.05633227     30.38058370  
H     -0.17698710     -0.40898516     -0.19659678     -8.28617552e+00   -6.65758598e+00    4.84043762e+00       -5.15963852      2.20860526    -16.55491898  
H     -0.18888123     -0.38357101     -0.18705343     -3.86050468e+00    3.57600869e+00   -7.88482369e+00       -4.58840959      1.70136504    -11.05037614  
H     -0.12522220     -0.43416974     -0.23722894      2.29205503e+00    7.66808452e+00    5.43867293e+00      -33.69562404     10.39000627    -52.31122630  
H     -0.10950489     -0.25146876     -0.31557561      5.81653537e-01    1.01863769e+01    9.74270464e+00      -49.85051029     -0.31798124    -41.70804073  
H     -0.13067741     -0.11564558     -0.38942136     -2.17050693e+00   -1.16621713e+01    8.42257864e-01      -63.89660866     -7.60699894    -65.18022316  
H     -0.10221168     -0.22885046     -0.37999241     -5.47999662e+00    4.08893261e+00    1.12542119e+01       -2.56158916      0.64228026     -1.57185772  
H     -0.11937821     -0.29740098     -0.35715534     -6.77012709e+00   -1.94911934e+00   -1.88944858e+00      -20.45640233      3.18605402    -13.69197158  
H     -0.28949296     -0.34548594     -0.23675583      1.13909052e+00    2.17584712e+00   -9.27050490e+00       42.85276758    -18.95880266     46.99935696  
H     -0.25558576     -0.46134660     -0.20975236     -1.58676766e+00   -8.78114758e+00    2.74095655e+00       62.03912089    -39.23811918     70.71146663  
H     -0.38830458     -0.37067010     -0.20684737     -4.39915454e+00    2.48643016e+00    7.41853844e+00       44.04035245    -32.66544546     73.00359125  
H     -0.47377377     -0.43833011     -0.21396801      1.03118726e+01    1.68398866e+00   -9.74650437e+00       35.98707937    -28.28018353     53.65535745  
H     -0.55440254     -0.47207717     -0.27206747     -6.76683959e+00    2.30798743e+00   -8.82123054e+00       26.44519569    -29.62509821     49.17843954  
H     -0.59389450     -0.39032942     -0.27062995     -1.14444130e+01    9.78308686e+00   -3.19295203e+00      -18.99706600     15.17159170    -36.18715028  
H     -0.53322534     -0.46595084     -0.17600594      5.97681190e-01    7.68856503e+00    1.51970599e+01        6.97398063     -7.63401151     15.63857111  
H     -0.50771934     -0.34214733     -0.20044423     -1.71892543e+00   -9.33976001e+00   -2.37531862e+00        2.04315522     -1.45351529      4.99390480  
H     -0.49957265     -0.35059012     -0.16848064      7.14389570e+00   -3.08933417e+00    3.55416164e+00       11.74650553     -8.06420159     24.32705839  
H     -0.40990745     -0.31658725     -0.17357926     -7.91055493e+00    2.76770706e+00   -1.83692979e+00      -23.65876087      3.19418301    -36.57097145  
H     -0.46594889     -0.32774760     -0.14446227     -6.51306886e+00   -4.00282957e+00    3.73281846e+00        7.58908129      0.62299478     15.35522304  
H     -0.43736107     -0.24448274     -0.13724029      4.84915346e+00    9.99776265e-01   -2.92707911e+00       13.05944460      6.69441231     21.05155843  
H     -0.45411385     -0.21597592     -0.20363135     -3.15791556e+00    5.68263032e+00    7.64148549e+00      -30.91462014    -35.25815909    -58.84073808  
H     -0.31559874     -0.22707027     -0.19207767     -2.54103032e+00    4.95628216e+00   -1.07596043e+01      -16.68293437    -11.39382449    -24.81809084  
H     -0.31039991     -0.19934372     -0.13798698     -5.99793829e+00    1.01482224e+01    3.27449329e+00      -46.82740377    -33.12678680    -91.44559881  
H     -0.23422202     -0.22687222     -0.09921672      6.09112412e-01    8.52420837e+00   -7.41460963e-01       -8.08923450     -5.17978064    -17.44618981  
H     -0.25719729     -0.21676426     -0.19646356      1.34517565e+01   -1.31886910e+01    4.78120914e-01       -8.41718161     -9.66723975    -35.50808625  
H     -0.20759067      0.01688147     -0.21920306     -7.06661194e+00   -4.52394317e+00   -5.09178909e+00       19.79917692     22.18481878     34.20894147  
H     -0.24603194     -0.12883388     -0.14237483     -5.90910679e+00   -7.69391846e+00   -1.25277302e+01       11.11501319     11.11499987     29.91855400  
H     -0.15730104     -0.15879377     -0.10494223      9.33533638e-01    7.77525914e+00    1.04011467e+01       42.15686282     23.28462259     83.67951233  
H     -0.16167225     -0.23717835     -0.08117586      2.87076671e+00    1.67592800e+01   -3.61098461e+00       33.54154702     24.89396559     83.93578976  
H     -0.21619825     -0.29044685     -0.03473145      1.59369950e+01    1.35922614e+01    2.25057709e+00       37.58577693     11.83964695     86.16398509  
H     -0.23303102     -0.33885932     -0.11983683      1.11151769e+01   -1.20257077e+00   -3.83893378e+00       33.43607609      6.55027612     91.28222368  
H     -0.46308075     -0.42494526     -0.93461989      1.28158273e+01    3.43589316e+00    4.30749261e+00       -6.14241100     -4.82344658    -18.67655329  
H     -0.48756290     -0.38181354     -0.91020483     -1.85959212e+01   -1.10842922e+01    5.22687173e+00       -9.82122374     -0.08145617    -28.30294723  
H     -0.40867051     -0.34327624     -0.87634506     -4.51331506e+00    5.61016195e+00   -8.08278862e+00        7.32031048     -0.89656452     19.23496949  
H     -0.50044760     -0.35085436     -0.84278026      3.83302852e+00   -2.70018086e+00   -5.74036049e+00        8.34425822      0.75860238     15.69338901  
H     -0.49107880     -0.33514934     -0.80041254     -4.84927611e+00   -1.20481919e+00    1.67266875e+01       36.89052867     -8.30977377     56.20530656  
H     -0.62747873     -0.26257139     -0.75182154     -3.55854419e+00   -2.49166854e-01    8.23034935e+00       53.17926270      2.12469616     45.15171404  
H     -0.58907771     -0.17366671     -0.85721524      7.42067561e+00    3.99056174e+00    5.15500032e+00       66.75898852      9.05315865     68.15935464  
H     -0.69990197     -0.18847585     -0.80980490      9.15243486e+00   -1.20959626e+01   -1.58454643e+01        4.98067491      0.35826241      3.98180261  
H     -0.70465741     -0.22896332     -0.75920599     -1.00064878e+01   -1.32795494e+00   -7.41757658e+00       23.81289939     -1.65356701     16.87115798  
H     -0.83856067     -0.09341755     -0.84152462     -2.65305041e+00   -1.05720826e+00    2.74039770e+00      -39.93959971     20.02345456    -44.46556796  
H     -0.88462008     -0.06764967     -0.92566872      1.12276163e+00    6.40979483e+00    3.52067587e+00      -59.77373851     39.73137490    -68.61645815  
H     -0.84046430     -0.03005087     -0.95998785     -6.57049385e-01    4.75468682e+00    1.02665730e+01      -41.69535117     33.48598659    -70.88163782  
H     -0.91190510     -0.08542748     -0.87151063     -7.56082800e+00   -7.60209666e+00   -9.01489895e+00      -33.91754212     29.15945077    -51.82413450  
H     -0.90233957     -0.06683354     -0.92838332     -6.93378714e+00   -8.41098248e+00   -1.07914915e+01      -24.25381136     30.64820472    -47.18966627  
H     -0.90404296     -0.15804254     -0.84850631     -8.78974369e+00    1.88622139e+01    9.98389354e+00       20.91223468    -14.29520108     37.81777452  
H     -0.79806832     -0.12953440     -0.81019885      3.01408623e+00   -7.19013032e+00    9.05152985e+00       -5.04104991      8.49851939    -13.88696296  
H     -0.72005477     -0.06616128     -0.86207565     -6.44545360e+00   -7.48472063e+00    3.07833373e+00       -0.21287034      2.33716952     -3.01587338  
H     -0.82082660     -0.12112083     -0.84075428     -1.61526736e+01    6.13039680e+00    5.99045087e+00      -10.96736794      8.51350899    -23.48070509  
H     -0.78906508     -0.27243612     -0.75546766      2.00577156e+00   -1.53160137e+01    2.64227606e+00       24.93336230     -2.37950264     37.95222128  
H     -0.79757201     -0.34442688     -0.83201125     -8.08040160e+00   -1.80644244e+00    3.13243258e+00       -6.66680594     -0.00270965    -14.34473685  
H     -0.82842972     -0.44235166     -0.77751508     -4.87263778e+00   -3.33638169e+00   -4.35732566e+00      -11.89830771     -5.91425947    -19.88339935  
H     -0.73137712     -0.52981697     -0.72643067      3.89684686e+00   -5.34116862e-01    4.77387412e+00       32.29760480     36.31581684     60.39697228  
H     -0.68605423     -0.48151151     -0.73734415      1.29347360e+01    4.70450744e+00   -5.16103871e+00       18.44235716     12.74082492     26.84382133  
H     -0.59255804     -0.40017958     -0.68375457      1.35515301e+01    9.63941098e+00   -3.04678574e+00       49.50992234     35.49786470     94.66953726  
H     -0.53773644     -0.43038498     -0.71760929      1.92890052e+00    1.54240675e-01   -3.09070368e+00       10.89523650      7.63143150     20.91065295  
H     -0.42806728     -0.40439065     -0.84951780      4.11387877e+00    9.52533955e+00   -1.27441694e-01       11.58488165     12.17189941     39.96032725  
H     -0.55599153     -0.38295965     -0.83001227      1.14926177e+01   -6.60535296e+00   -6.77489358e+00      -17.01384378    -20.30425703    -30.55591512  
H     -0.49194587     -0.38201246     -0.84727374      1.04915404e+01   -5.17889430e+00    1.81454413e+01       -8.08558534     -8.81125019    -26.05595553  
H     -0.59124040     -0.39906317     -0.96314793     -5.40954257e-01    1.54408100e+01    7.77120939e+00      -41.06530573    -22.57033564    -82.10609854  
H     -0.50875816     -0.49471576     -0.94767123      5.45972874e+00    4.71276287e+00    2.46539201e+00      -32.22355864    -23.95673926    -81.96363046  
H     -0.60056375     -0.41159197     -0.91567280     -2.10468523e-01   -1.50172202e+01   -3.83983390e+00      -36.24485707    -11.01317905    -84.27928641  
H     -0.56936604     -0.40458363     -1.03860634     -2.19787469e+00    3.53729574e+00    5.01144690e+00      -32.52342456     -6.01939219    -89.97858204  
H      1.01999645      0.50706454      1.25453889      1.48883020e+01    2.85509375e+00   -3.39274727e+00       -1.25123693     -0.77314272     -1.71555089  
H      1.06153062      0.47585235      1.16709002     -1.35681006e+00   -6.84157235e+00   -9.27951293e+00       -1.66319788     -0.97487609     -2.07763647  
H      1.08047767      0.48107850      1.12267983      3.83208207e+00    1.77536073e+01   -3.27104692e-01       -2.16067196     -1.31204074     -2.68005051  
H      0.88839836      0.45763004      0.98972489      5.69210634e+00    1.21267953e+01    2.18182148e+00       -3.75584864     -2.45996742     -4.64301287  
H      0.97627398      0.47480806      1.03863275      5.28637925e+00   -8.69367705e+00    4.69827502e+00       -3.19490463     -2.08023250     -3.89408026  
H      1.06542782      0.53948106      0.95644867      2.68776354e+00   -8.91350924e+00    1.57246462e+00       -3.32875241     -1.80671492     -3.44367331  
H      1.12270525      0.61421231      0.92026309     -8.87471889e-01    7.53778322e+00    5.02655653e+00       -2.86237986     -1.44615971     -2.97913148  
H      1.16195832      0.46565936      0.97825151      3.14574050e+00   -4.40306365e+00   -3.42312561e+00       -2.41908576     -1.00054268     -2.40994490  
H      1.10845250      0.46039363      0.89529598     -6.89214689e+00   -3.26329785e-01    1.91240205e+00       -3.35649706     -1.53248701     -3.17918640  
H      1.05747402      0.46489401      0.84541520     -1.31650431e+01   -1.11115853e+01    2.24913799e+00       -2.91316787     -1.06465189     -2.53378899  
H      0.98105009      0.45224695      0.77094408     -2.98918257e+00   -3.07903205e+00   -2.64909270e+00       -2.26538238     -0.49325572     -2.09500848  
H      1.03732320      0.52850294      0.80711838     -7.48006527e+00   -7.32538322e-01    7.37396310e+00       -2.34500128     -0.82054114     -2.12195343  
H      0.99330940      0.57447462      0.88918148      9.00899322e+00   -5.44842996e+00    5.65274278e+00       -2.06953725     -0.87926724     -1.83122294  
H      0.91959996      0.59711196      0.83708772      4.02630085e+00   -9.53685459e-01    8.20387466e+00       -2.19138433     -1.02310652     -1.98877327  
H      1.00419578      0.56235662      0.90437001     -6.11244776e+00   -1.03674800e+01    5.58652166e+00       -1.91516868     -0.87639062     -1.63062424  
H      1.04121585      0.52528904      1.00196562     -3.01721519e+00   -5.64261097e-01   -1.09284667e+01       -1.93293072     -0.86450788     -1.75160815  
H      0.95291706      0.60208393      1.10517199      8.47812034e+00    2.21993544e+00   -4.05193976e+00       -1.83028488     -0.88365423     -1.97803142  
H      1.00502224      0.79728144      1.24747190      3.77118671e+00   -4.80355716e-01   -3.78180949e+00       -0.77913759     -0.44930740     -0.84635329  
H      0.95007161      0.70850011      1.20717477      3.13678308e-01    4.08815837e+00   -3.21119034e+00       -1.27460143     -0.81468037     -1.38124983  
H      0.94345300      0.73975354      1.21184671      6.82694489e+00    1.55632768e+01   -8.09865848e-01       -0.92227534     -0.62028513     -1.01048618  
H      0.95644851      0.72767504      1.12928017      1.32733806e+01   -8.42615769e+00    1.51868853e+00       -1.16113688     -0.78015284     -1.16815908  
H      0.85428267      0.73599675      1.16794377      5.88824036e+00    6.37886527e+00   -8.14865226e+00       -1.38298466     -1.05765775     -1.55623420  
H      0.88893639      0.71069273      1.13137076      5.82084190e-01   -1.05787310e+01    4.98771711e+00       -1.75942278     -1.34700043     -2.02573050  
H      0.80078123      0.80990951      1.08222762     -6.28256458e+00    1.08252455e+01    3.60046487e+00       -2.68251857     -2.37107790     -3.22393845  
H      0.83632912      0.74374273      1.08326155      5.66092341e+00    4.92488071e+00   -8.56670757e+00       -2.80600200     -2.45165087     -3.46446314  
H      0.80229377      0.59134487      1.05983417     -9.72473804e+00    5.65729446e+00    3.38811231e+00       -3.16770004     -2.50465966     -4.45224100  
H      0.84586887      0.63077902      1.07142196     -9.75428676e+00   -9.13289831e+00   -1.31262121e+00       -2.78533314     -1.88056175     -3.65302635  
H      0.84996978      0.66511189      1.02134735     -1.11507567e+01   -8.62209764e+00   -6.31294280e+00       -3.02942785     -2.30374968     -3.86259847  
H      0.90414452      0.60228049      1.07090549      8.55853444e+00    9.43556007e+00   -1.17240714e+00       -1.09155709     -0.71428696     -1.57341379  
H      0.90107977      0.50620006      1.10931958      2.16162996e+01   -6.40275003e-01   -6.51951330e+00       -1.31798837     -0.93722633     -1.97215930  
H      0.89260287      0.51063747      1.17734642      3.78614526e+00   -3.27387142e+00   -1.81462797e+01       -1.34091986     -0.82646790     -1.88469869  
H      0.98661309      0.49446717      1.20439415      8.98986222e+00    8.06069367e+00    3.11026925e-01       -0.91265153     -0.53088394     -1.30364165  
