3
100000  xi=   0.93290082  Mean pot=  -104.97411658  Cent pot=  -106.26195292 kcal/mol
H      0.49173727     -0.85585539     -0.22828656       0.14783133
H      0.04881716     -0.30970705     -0.18896463       0.17481163
H     -0.54055443      1.16556244      0.41725119       0.17758377
3
200000  xi=   0.93060870  Mean pot=  -100.38721370  Cent pot=  -103.70091487 kcal/mol
H      0.69538838     -0.64074198      0.50446407       0.11375351
H      0.37053316     -0.28277948     -0.20203450       0.20577708
H     -1.06592154      0.92352146     -0.30242957       0.21693639
3
300000  xi=   0.94094283  Mean pot=  -103.29173539  Cent pot=  -106.58229621 kcal/mol
H      0.95435384     -0.22696126      0.28655524       0.20128849
H      0.31377466      0.05535446      0.02273740       0.14649835
H     -1.26812850      0.17160681     -0.30929264       0.17217736
3
400000  xi=   0.93774229  Mean pot=  -103.08197657  Cent pot=  -106.51678854 kcal/mol
H      0.07779241      0.30197932      0.23795668       0.20020834
H      0.65033121      0.74678695      0.07429022       0.14652589
H     -0.72812362     -1.04876627     -0.31224690       0.26618719
3
500000  xi=   0.93690164  Mean pot=  -102.56158602  Cent pot=  -106.40633180 kcal/mol
H     -0.01237219      0.32302686     -0.00969330       0.12878528
H     -0.32639901      0.96601954     -0.00795078       0.21531355
H      0.33877120     -1.28904640      0.01764409       0.17024269
3
600000  xi=   0.92841590  Mean pot=  -101.12928647  Cent pot=  -105.80683382 kcal/mol
H     -0.55508356     -0.70552064     -0.22946057       0.22462108
H     -0.50068625     -0.07197000      0.07235722       0.19722283
H      1.05576981      0.77749064      0.15710334       0.17226643
3
700000  xi=   0.93257678  Mean pot=  -103.89376707  Cent pot=  -106.73863282 kcal/mol
H      0.39508879      0.21963618     -0.07274108       0.18913562
H      0.93972283     -0.26648937      0.04070713       0.16895903
H     -1.33481162      0.04685319      0.03203396       0.16180835
3
800000  xi=   0.93397306  Mean pot=  -104.54137347  Cent pot=  -106.81191348 kcal/mol
H      0.06374069      0.10474819      0.30981843       0.14874415
H      0.33464651      0.14068700      0.97202620       0.21238321
H     -0.39838720     -0.24543519     -1.28184463       0.23584461
3
900000  xi=   0.93647519  Mean pot=  -104.33076257  Cent pot=  -106.34544938 kcal/mol
H      0.81718711     -0.25785548     -0.47214042       0.14400556
H      0.16668844     -0.40786068     -0.09683525       0.19257369
H     -0.98387555      0.66571616      0.56897566       0.17699300
3
1000000  xi=   0.93170998  Mean pot=  -103.60552144  Cent pot=  -105.85182527 kcal/mol
H      0.63268378     -0.11498482     -0.65585261       0.17644249
H      0.07867458     -0.49841855     -0.25999172       0.16825475
H     -0.71135836      0.61340337      0.91584433       0.20056653
3
1100000  xi=   0.92989344  Mean pot=  -104.48213225  Cent pot=  -106.92084535 kcal/mol
H      0.36514109      0.22524114      0.95299116       0.19571802
H      0.14215190     -0.03177250      0.33101092       0.19462007
H     -0.50729300     -0.19346865     -1.28400208       0.17137529
3
1200000  xi=   0.93472732  Mean pot=  -103.00452875  Cent pot=  -107.08773646 kcal/mol
H     -0.53953428      0.82967043      0.31694202       0.14811866
H     -0.13832064      0.22473901      0.22225612       0.20852409
H      0.67785492     -1.05440944     -0.53919814       0.16327998
3
1300000  xi=   0.93862553  Mean pot=  -104.59856946  Cent pot=  -106.52840318 kcal/mol
H     -0.13402822      0.13660623     -0.23757850       0.16600059
H     -0.41222005      0.34830098     -0.87132279       0.16184752
H      0.54624828     -0.48490721      1.10890128       0.20808974
3
1400000  xi=   0.92717230  Mean pot=  -103.45707057  Cent pot=  -106.71258991 kcal/mol
H      0.39744010      0.10210741     -0.18663336       0.22115237
H      0.89180690      0.60621428      0.20112287       0.19954677
H     -1.28924700     -0.70832169     -0.01448951       0.19650738
3
1500000  xi=   0.93558753  Mean pot=  -104.08494141  Cent pot=  -107.35358625 kcal/mol
H     -0.15973643     -1.06243023      0.09639515       0.19115652
H     -0.01921270     -0.31404232      0.04439593       0.18979679
H      0.17894913      1.37647255     -0.14079108       0.23749675
3
1600000  xi=   0.92935319  Mean pot=  -105.56458567  Cent pot=  -107.83417089 kcal/mol
H      0.02104996     -0.33317507     -0.10983836       0.15060613
H     -0.04646454     -0.98471401     -0.45288480       0.14524209
H      0.02541458      1.31788908      0.56272316       0.19434991
3
1700000  xi=   0.93246786  Mean pot=  -103.68466295  Cent pot=  -100.94333067 kcal/mol
H      0.82541806      0.39544323     -0.09164449       0.21320753
H      0.23233585      0.21385138     -0.27245476       0.21402259
H     -1.05775390     -0.60929461      0.36409926       0.19954684
3
1800000  xi=   0.93339232  Mean pot=  -104.18260096  Cent pot=  -107.32233111 kcal/mol
H     -0.23624781      0.10539227      0.24838324       0.18606866
H     -0.97015848      0.01786205      0.47634533       0.18152958
H      1.20640628     -0.12325433     -0.72472858       0.26482204
3
1900000  xi=   0.93075202  Mean pot=  -104.70123725  Cent pot=  -107.60148035 kcal/mol
H      0.33543778      0.08680525      0.00093377       0.19763061
H      1.02015511      0.40004432     -0.18812450       0.24531906
H     -1.35559289     -0.48684957      0.18719074       0.20909761
3
2000000  xi=   0.94477755  Mean pot=  -102.93643104  Cent pot=  -105.54992125 kcal/mol
H      0.01580904      0.17347713     -1.04357532       0.14283568
H      0.05441684      0.17803970     -0.23925867       0.21557817
H     -0.07022588     -0.35151683      1.28283400       0.18741796
