3
100000  xi=   0.48317249  Mean pot=  -106.39010694  Cent pot=  -109.47033832 kcal/mol
H      0.60259769      2.33387882     -1.78477821       0.18662561
H     -0.12894813      2.17533502     -1.74032727       0.19019858
H     -0.47364956     -4.50921383      3.52510547       0.19078941
3
200000  xi=   0.48058757  Mean pot=  -106.33397968  Cent pot=  -109.32741588 kcal/mol
H     -2.11676402     -2.10841336     -0.32994320       0.15877405
H     -2.19014360     -1.73184987      0.32885392       0.15760844
H      4.30690762      3.84026322      0.00108927       0.18210945
3
300000  xi=   0.47619880  Mean pot=  -107.04572777  Cent pot=  -108.82160489 kcal/mol
H     -0.57524616     -0.40414255      2.59513101       0.16075551
H     -0.75782173     -1.00130077      2.91786405       0.16762745
H      1.33306789      1.40544333     -5.51299506       0.18804731
3
400000  xi=   0.48340131  Mean pot=  -106.65502879  Cent pot=  -109.39653291 kcal/mol
H      1.94560811      1.19951524     -1.15259103       0.21136271
H      2.32423244      1.67260610     -1.55291924       0.21706694
H     -4.26984054     -2.87212134      2.70551027       0.21156249
3
500000  xi=   0.48622527  Mean pot=  -106.84538811  Cent pot=  -109.47957224 kcal/mol
H     -2.35474303     -1.86162775     -1.12661307       0.20480836
H     -1.67297343     -1.58915325     -1.16147533       0.15157585
H      4.02771646      3.45078100      2.28808840       0.11777338
3
600000  xi=   0.47563502  Mean pot=  -107.61427368  Cent pot=  -108.36252409 kcal/mol
H     -1.09986503      0.07724687      2.39317592       0.17314414
H     -1.68083269      0.05429894      2.76856899       0.18813056
H      2.78069771     -0.13154581     -5.16174491       0.18961442
3
700000  xi=   0.48554223  Mean pot=  -106.24316047  Cent pot=  -106.76281484 kcal/mol
H      2.31681922     -0.90479921      1.77703878       0.24945065
H      1.69181762     -0.75026697      1.95102407       0.25415134
H     -4.00863685      1.65506618     -3.72806285       0.22572156
3
800000  xi=   0.47983616  Mean pot=  -107.28301898  Cent pot=  -109.37831468 kcal/mol
H     -0.70236466      1.62557595      1.87424951       0.17130319
H     -0.80578836      2.29786265      2.21086834       0.18012720
H      1.50815302     -3.92343860     -4.08511785       0.22019357
3
900000  xi=   0.48436519  Mean pot=  -107.43058093  Cent pot=  -108.80564806 kcal/mol
H     -0.85304810      0.33982323      2.42011081       0.17647879
H     -0.87950223      0.75192922      2.98839325       0.20487272
H      1.73255033     -1.09175245     -5.40850406       0.15963733
3
1000000  xi=   0.47678812  Mean pot=  -107.45924480  Cent pot=  -109.38704320 kcal/mol
H      3.16119048      0.91243068     -0.19401557       0.18600809
H      2.47152077      0.69186968     -0.41916355       0.22916924
H     -5.63271125     -1.60430036      0.61317912       0.17168809
3
1100000  xi=   0.47492912  Mean pot=  -107.06553039  Cent pot=  -109.09091213 kcal/mol
H     -2.94830424      0.11875408     -0.60127505       0.20004425
H     -2.62437605     -0.35880219     -1.01717974       0.17439385
H      5.57268029      0.24004811      1.61845478       0.15075752
3
1200000  xi=   0.47834031  Mean pot=  -104.85420120  Cent pot=  -109.06012151 kcal/mol
H      1.49653212     -2.48167376     -1.12911970       0.14436101
H      1.54759480     -1.80461976     -1.33747071       0.25505394
H     -3.04412691      4.28629353      2.46659041       0.23745036
3
1300000  xi=   0.48098000  Mean pot=  -107.15287059  Cent pot=  -109.49040820 kcal/mol
H      2.66635053      1.01055798     -1.57958806       0.20779510
H      1.93965489      0.88347248     -1.46951964       0.12877629
H     -4.60600542     -1.89403046      3.04910770       0.18694817
3
1400000  xi=   0.48531812  Mean pot=  -105.15798300  Cent pot=  -109.11186797 kcal/mol
H     -0.90917036      2.64333004     -0.03108137       0.18769088
H     -0.60646967      2.82310412      0.58787674       0.20650245
H      1.51564002     -5.46643415     -0.55679537       0.15972493
3
1500000  xi=   0.47909803  Mean pot=  -106.73706385  Cent pot=  -109.48909325 kcal/mol
H      0.16879692      1.02604889     -3.02649287       0.17095361
H     -0.09911634      1.20592530     -2.36383668       0.15665236
H     -0.06968058     -2.23197419      5.39032955       0.19132932
3
1600000  xi=   0.47877356  Mean pot=  -106.26421083  Cent pot=  -108.71095763 kcal/mol
H     -1.52415343      2.64479149      1.10579284       0.13070188
H     -1.61430637      1.94651371      0.75333342       0.17520553
H      3.13845980     -4.59130520     -1.85912626       0.20600068
3
1700000  xi=   0.47961813  Mean pot=  -105.96855089  Cent pot=  -109.49338487 kcal/mol
H      0.18572188     -3.12389306      0.03656843       0.15672735
H      0.42929107     -2.62595735      0.53420098       0.18706920
H     -0.61501295      5.74985040     -0.57076941       0.22713009
3
1800000  xi=   0.47302828  Mean pot=  -105.60187621  Cent pot=  -109.07672721 kcal/mol
H     -1.26558567     -1.67835995      1.53866348       0.18387639
H     -1.64540984     -2.32176644      1.74321741       0.15802601
H      2.91099551      4.00012639     -3.28188089       0.16689578
3
1900000  xi=   0.48394954  Mean pot=  -106.17306306  Cent pot=  -109.00943526 kcal/mol
H     -1.84716694      0.34750182      2.68935909       0.15723867
H     -1.62084301      0.16792714      1.96775871       0.18879428
H      3.46800995     -0.51542896     -4.65711780       0.11220649
3
2000000  xi=   0.47653237  Mean pot=  -105.78204427  Cent pot=  -109.49528180 kcal/mol
H     -2.52569161      0.69389642     -0.08743170       0.20726665
H     -3.18983681      0.58816502     -0.39412110       0.19496602
H      5.71552841     -1.28206143      0.48155281       0.21899975
