3
100000  xi=   0.81316615  Mean pot=  -106.48459183  Cent pot=  -109.45915089 kcal/mol
H     -0.33927301      0.57487491     -1.24186567       0.19942979
H     -0.62602654     -0.01881816     -0.93331988       0.19311495
H      0.96529955     -0.55605675      2.17518555       0.19060999
3
200000  xi=   0.82994017  Mean pot=  -106.64447895  Cent pot=  -109.46493640 kcal/mol
H      1.03287678      0.04255671     -0.00312044       0.21798448
H      1.16354103     -0.42498635     -0.58194949       0.21871781
H     -2.19641781      0.38242965      0.58506993       0.17429694
3
300000  xi=   0.82024146  Mean pot=  -108.38620360  Cent pot=  -109.38154637 kcal/mol
H     -0.78220734      0.87115371      0.32477998       0.13984804
H     -0.22672394      0.86399896      0.78648440       0.15501463
H      1.00893128     -1.73515267     -1.11126438       0.15637484
3
400000  xi=   0.82276215  Mean pot=  -105.70160837  Cent pot=  -109.15693013 kcal/mol
H     -0.28748596      1.28931983     -0.73409512       0.25476324
H     -0.39321155      0.84028492     -0.19169871       0.20080012
H      0.68069750     -2.12960475      0.92579383       0.24372042
3
500000  xi=   0.82328195  Mean pot=  -106.85857930  Cent pot=  -109.54167948 kcal/mol
H      0.08714215      0.90613356     -0.36841092       0.21023602
H     -0.44790714      1.17228534     -0.81072132       0.18925274
H      0.36076499     -2.07841889      1.17913224       0.17970040
3
600000  xi=   0.82086107  Mean pot=  -106.36828559  Cent pot=  -109.53068339 kcal/mol
H     -0.52384013      0.43119989     -0.77813635       0.21296258
H     -0.06291200      0.54881607     -1.35379556       0.20024255
H      0.58675213     -0.98001596      2.13193191       0.20923992
3
700000  xi=   0.82704268  Mean pot=  -106.03401705  Cent pot=  -108.63108550 kcal/mol
H     -0.22083532     -0.98975442     -1.17390783       0.19121842
H     -0.14047119     -0.55692886     -0.63393216       0.22488342
H      0.36130651      1.54668328      1.80783999       0.15341563
3
800000  xi=   0.82613993  Mean pot=  -106.04367342  Cent pot=  -109.48650189 kcal/mol
H      0.53834151     -1.34942618     -0.36127540       0.18234314
H      0.13590866     -0.76534709     -0.53357558       0.24860715
H     -0.67425017      2.11477327      0.89485098       0.16981266
3
900000  xi=   0.82524041  Mean pot=  -106.82412708  Cent pot=  -108.46164194 kcal/mol
H     -1.01980521     -0.53567858     -0.60721980       0.15403307
H     -0.98333194      0.13034481     -0.41851091       0.20576557
H      2.00313714      0.40533377      1.02573071       0.18425155
3
1000000  xi=   0.82315428  Mean pot=  -106.08629955  Cent pot=  -109.51969938 kcal/mol
H     -1.02425437     -0.75698322     -0.33179437       0.12007944
H     -0.83800498     -0.63165480      0.36750243       0.18846387
H      1.86225935      1.38863802     -0.03570806       0.23444542
3
1100000  xi=   0.81589262  Mean pot=  -105.95197666  Cent pot=  -108.84141038 kcal/mol
H     -0.74361878      0.75706154     -1.03107923       0.19326707
H     -0.11940354      0.45700288     -0.91458118       0.20855185
H      0.86302232     -1.21406442      1.94566041       0.21419146
3
1200000  xi=   0.82614001  Mean pot=  -107.61972453  Cent pot=  -109.20533442 kcal/mol
H     -0.90446244     -0.68719705     -0.90797576       0.16290846
H     -0.75383094     -0.05895225     -0.60413486       0.23254745
H      1.65829339      0.74614930      1.51211061       0.22084534
3
1300000  xi=   0.80672662  Mean pot=  -106.94662014  Cent pot=  -109.38161273 kcal/mol
H      1.12492347      0.57592954     -0.29991226       0.21528915
H      0.58346763      0.86116973     -0.68400354       0.14759345
H     -1.70839110     -1.43709927      0.98391579       0.21276077
3
1400000  xi=   0.81846332  Mean pot=  -105.94256374  Cent pot=  -105.53327678 kcal/mol
H     -1.09073502      0.75864979     -0.44205130       0.18327545
H     -1.00853835      0.19878943     -0.11676823       0.23017877
H      2.09927337     -0.95743922      0.55881954       0.19939241
3
1500000  xi=   0.82624455  Mean pot=  -106.95247410  Cent pot=  -109.39834840 kcal/mol
H     -0.30058521      0.03305015     -0.96817522       0.18587112
H     -0.82456956      0.53031486     -1.00588884       0.20656522
H      1.12515477     -0.56336501      1.97406406       0.16859126
3
1600000  xi=   0.82154281  Mean pot=  -104.65289794  Cent pot=  -108.99745865 kcal/mol
H      0.25213533      1.45166248     -0.13389141       0.20325163
H     -0.18352638      0.90290063     -0.47518073       0.11969572
H     -0.06860895     -2.35456311      0.60907214       0.25280264
3
1700000  xi=   0.82548803  Mean pot=  -105.76091713  Cent pot=  -108.85273037 kcal/mol
H     -0.75166295      0.18151758     -0.50947385       0.21829768
H     -1.50327248      0.31139521     -0.32623663       0.22185139
H      2.25493543     -0.49291279      0.83571048       0.20707244
3
1800000  xi=   0.82671441  Mean pot=  -106.11417468  Cent pot=  -109.03196294 kcal/mol
H     -0.70077786      0.36228007      0.43630955       0.18246822
H     -1.09035404      0.26890697      1.01963328       0.17214337
H      1.79113190     -0.63118704     -1.45594283       0.21070011
3
1900000  xi=   0.83030997  Mean pot=  -107.74550617  Cent pot=  -109.21447244 kcal/mol
H      0.22983374     -1.06974742      0.19068831       0.16736299
H     -0.43735117     -1.12602003     -0.05845752       0.23423220
H      0.20751744      2.19576745     -0.13223079       0.20934289
3
2000000  xi=   0.82451377  Mean pot=  -106.90690914  Cent pot=  -109.07956121 kcal/mol
H     -0.43976519     -0.99041646     -0.57231772       0.16118167
H     -0.40081292     -1.09881679      0.19524108       0.17106143
H      0.84057811      2.08923325      0.37707665       0.26323931
