96
100000  xi=   0.05730986  Mean pot=  -107.91121790  Cent pot=  -109.49635035 kcal/mol
H      0.79183497      5.17718794     -0.22128515     -4.57888426e-01   -1.25500954e+00    2.68626431e-01       59.31014600     36.00656370     -1.24392925  
H      0.70792639      5.01952528     -0.22321864     -1.04961357e+01    2.32276441e+00    4.90766746e-01     -101.61418664    -39.61414427     11.80652770  
H      0.80102700      5.01876024     -0.16345727     -3.38111927e+00    2.53858700e+00    4.25206422e+00      -71.79264407    -23.12859323      0.12301678  
H      0.78714508      4.92395074     -0.20909713      2.85834177e-01    4.90896522e+00   -7.49800011e-01       -9.64971778     -0.14533497      1.68106809  
H      0.82895139      4.87226921     -0.25978208      1.63115527e+00   -1.49844576e+00    3.89328781e+00       11.41464021     -1.01083591     -3.71997693  
H      0.76825200      5.06070825     -0.31114960      7.06227015e-01    4.92325624e+00   -3.09694975e+00       10.23843739      0.50968524     -4.03938331  
H      0.76214261      5.17693408     -0.30202010      1.66313553e+01    5.88169093e+00    7.00506720e+00      -58.67149948     -5.33662289      8.37503964  
H      0.74960037      5.15249851     -0.25933385     -3.59794478e+00    2.85228918e+00   -2.20392414e+01      -33.33604961     -4.49917871      3.02262191  
H      0.71700058      5.11346656     -0.19212860     -4.89423921e+00    5.90155608e+00   -1.19926778e+01      -77.24308896    -16.82311082     -2.79910378  
H      0.60355717      5.21918950     -0.11595614     -7.58603893e+00   -3.77273833e+00   -4.06808795e+00       20.33055682      7.11650472      2.78108246  
H      0.62471603      5.16811261     -0.22521545     -5.36693536e+00   -1.79093328e+00    7.10522224e+00       42.37696980     12.93696780     -2.69096724  
H      0.53762971      5.31817188     -0.26594642     -3.59120345e+00    6.00652944e+00    1.41435661e+01       48.50882671     29.47997627     -9.07861484  
H      0.48435665      5.21790338     -0.08859219      7.62922285e+00   -1.40751961e+00   -7.21490564e+00       45.85824762     19.55074116      5.61426497  
H      0.36620977      5.26247249     -0.10414354      4.30264170e+00   -6.02923748e+00   -9.25916055e+00       21.47936798     15.81610853      6.81224959  
H      0.29749530      5.24033707     -0.09707200     -7.53185986e+00    1.62080391e+01    4.66614199e+00      -60.80904215    -49.24153916    -13.50780866  
H      0.43621400      5.20453666     -0.00744597     -1.46921277e-01    2.59868495e+00    1.01269832e+01       22.45793272     14.34229041      7.09171219  
H      0.47500054      5.30354537     -0.07046843     -1.55084489e+00   -2.15037992e+00    1.66135082e+00       22.19643603     15.65849611      4.71005691  
H      0.49840017      5.25266525     -0.06066565      1.46824433e-01   -3.97769520e-01    5.69557725e+00       59.42831364     30.93167373      6.74246302  
H      0.51343533      5.19912875     -0.08080502     -9.24360647e-01   -4.94340438e+00   -1.85296844e+00       44.40217612     28.36455731     -2.87656683  
H      0.45261169      5.12134409     -0.01889590     -1.88413803e+01   -3.61717212e+00   -6.38473789e-01       -9.97557316     -5.57983829     -1.14899670  
H      0.43985654      5.08130401     -0.07101870      1.13537086e+00    4.50855957e+00   -5.87323118e+00      -44.95471641    -21.08998522      4.61038430  
H      0.46769236      5.06510700     -0.08341808      1.84643665e+00    2.99179735e+00   -1.86297160e+00      -31.47677584    -17.03499266      4.23463666  
H      0.58987690      5.16627220     -0.12132750      5.47414772e+00    2.65191075e+00   -4.95833835e+00       42.94567225     29.82190470     -9.75295739  
H      0.60854207      5.21222614     -0.08298734      1.28581539e+01    4.92557859e+00    1.10997637e+00       27.26353904     20.98345909     -6.52091456  
H      0.71917690      5.12685499     -0.11902573      1.06267176e+01    1.67863517e+00   -6.68231711e+00       31.44604557     15.03208114     -9.98605598  
H      0.75539593      5.13439241     -0.22776480      1.45216284e+01   -5.66098218e+00   -3.15954870e+00       17.16604235      8.15649361     -4.26265276  
H      0.72999966      5.26211686     -0.28658201      9.34344849e+00   -9.79661140e+00   -3.58597429e-01       49.95836859     23.78862684    -20.71662066  
H      0.70962328      5.22309306     -0.20186486     -1.03133411e+01   -4.37403643e+00    2.24834931e+00       18.13361206     11.28793739     -4.66229688  
H      0.68073738      5.17297876     -0.27790640     -1.09855160e+00    2.42578446e+00    4.38347199e+00       19.03233847     11.73053717     -7.38402240  
H      0.74420497      5.15893779     -0.15221798     -2.52152032e+00    1.50419885e+01   -5.29228811e+00       45.82058232     35.42071751     -4.20100332  
H      0.66804931      5.11785690     -0.11920548      9.97329932e+00   -4.80267083e+00   -5.38988598e+00       21.18982270     13.43656874     -1.09421515  
H      0.70584139      5.09029478     -0.15767918      2.24902839e+00   -7.74178199e-01   -2.01615832e+00       40.80645880     22.60217391      4.17902359  
H      0.05383976      4.72915885     -0.20580696      6.85762517e+00    2.31724794e+00   -1.05641243e+01      -59.31014591    -36.00656212      1.24392917  
H      0.10952948      4.78624110     -0.15369105     -9.53679058e+00   -6.65704990e+00    5.26387861e+00      101.61418673     39.61414587    -11.80652777  
H      0.16324932      4.81329488     -0.16236444     -1.06475116e+01   -4.88114194e+00   -1.17078530e+01       71.79264416     23.12859480     -0.12301684  
H      0.06782296      4.91311693     -0.08378471      2.05782677e+00   -4.25285475e-01   -1.28167616e+01        9.64971789      0.14533653     -1.68106813  
H      0.11184157      4.93577371     -0.02607940     -3.30298947e+00    9.45178540e+00    1.36221524e+01      -11.41464010      1.01083749      3.71997689  
H      0.06619212      5.02575868     -0.03416505     -1.77923953e+00    6.77849181e+00    1.70420734e+01      -10.23843730     -0.50968373      4.03938327  
H      0.08906793      5.11571277     -0.20594233     -9.56014838e+00   -1.13742624e+01   -3.59833394e+00       58.67149956      5.33662440     -8.37503968  
H      0.05328971      5.05852137     -0.19619847      8.08350729e+00   -1.26541748e+01    1.41393053e+01       33.33604969      4.49918012     -3.02262195  
H      0.06540292      4.97155225     -0.21574093     -8.20904828e+00   -7.08201240e+00    2.28857679e+00       77.24308904     16.82311228      2.79910374  
H     -0.11756010      4.96676976     -0.21460010      7.58686324e+00    3.01438109e+00   -2.92604979e+00      -20.33055675     -7.11650330     -2.78108249  
H     -0.14622639      4.93275702     -0.17626007      7.06766259e+00    1.67605080e+00   -1.77161909e+00      -42.37696972    -12.93696636      2.69096721  
H     -0.16627842      4.89039006     -0.13420729      7.77377109e-01    2.08475720e+00    1.97091982e+00      -48.50882664    -29.47997479      9.07861482  
H     -0.26403531      4.89884153     -0.18021520     -2.43976748e+00   -2.81626262e+00   -1.56491816e+01      -45.85824755    -19.55073964     -5.61426499  
H     -0.24161904      4.81490410     -0.29691837     -1.54875217e+01    8.18626607e-01   -1.02673563e+01      -21.47936791    -15.81610696     -6.81224962  
H     -0.21335941      4.82666056     -0.21055065     -1.15522478e+01    1.32050165e+01   -2.62176458e+00       60.80904221     49.24154071     13.50780863  
H     -0.19834426      4.79928928     -0.20782526      5.68842042e+00   -8.72627132e-02    1.07917050e+01      -22.45793266    -14.34228885     -7.09171222  
H     -0.15228506      4.86102619     -0.20357768     -5.11828206e+00   -1.41697496e+01   -3.97611907e+00      -22.19643595    -15.65849454     -4.71005696  
H     -0.25882270      4.85854049     -0.14657667     -8.27857175e+00    3.14789476e+00   -1.35239390e+00      -59.42831357    -30.93167200     -6.74246308  
H     -0.17995415      4.75618457     -0.03588422     -4.76764718e+00   -9.25996858e+00    3.17224117e+00      -44.40217604    -28.36455555      2.87656677  
H     -0.17986787      4.76756651     -0.09174554      4.21791046e+00   -8.35184638e-01    1.21382457e+00        9.97557325      5.57984009      1.14899666  
H     -0.18286283      4.78916241     -0.00715497     -2.18250983e+00   -9.11776063e+00    1.76179795e-01       44.95471650     21.08998702     -4.61038434  
H     -0.14655655      4.73268012     -0.00078189     -1.86021304e+00    3.87917561e+00    1.16195041e+01       31.47677594     17.03499451     -4.23463671  
H     -0.07618702      4.70375076      0.02993554      3.59213360e+00    4.49995711e+00   -1.05925355e+01      -42.94567215    -29.82190294      9.75295735  
H     -0.00737219      4.73818602      0.06432752     -6.61554070e+00    1.66018574e+01   -2.81739111e-01      -27.26353892    -20.98345725      6.52091452  
H      0.03127400      4.79801836      0.09942580     -9.98779355e+00    7.55735001e+00    1.66167681e+00      -31.44604545    -15.03207939      9.98605595  
H      0.07929883      4.81314299     -0.05987711     -3.56766259e-01    2.02997296e+00    3.99618980e+00      -17.16604223     -8.15649198      4.26265271  
H      0.02162053      4.92480868      0.00716701     -4.55870094e+00    3.22683493e-02   -1.20458350e+01      -49.95836848    -23.78862526     20.71662062  
H      0.07049076      4.82524142     -0.03753877      1.15236066e+01   -1.22205006e+01    5.06124326e+00      -18.13361195    -11.28793573      4.66229683  
H      0.05585347      4.78783305     -0.03546868      5.37680233e-01    2.29828907e+01    1.30736560e+01      -19.03233837    -11.73053549      7.38402234  
H      0.08493838      4.64930448     -0.09177394      8.23460505e+00    5.22600390e+00    8.00477745e-01      -45.82058221    -35.42071586      4.20100327  
H      0.01384030      4.70301984     -0.08542297      5.54954929e+00    3.60250024e+00    2.82174529e+00      -21.18982260    -13.43656709      1.09421509  
H     -0.00179431      4.69834445     -0.23014874      6.64790890e+00    2.67386773e+00    3.27771779e-01      -40.80645871    -22.60217226     -4.17902366  
H     -0.50556847    -10.06011961      0.51804790      1.75386573e+01    5.35648389e+00   -4.26139260e-01       -0.00000009     -0.00000158      0.00000008  
H     -0.45989388    -10.07584955      0.46141839     -3.11049899e+00   -1.14653618e+01   -3.43650985e+00       -0.00000009     -0.00000161      0.00000007  
H     -0.46949453    -10.10329165      0.37551711      5.06452538e+00    1.90533671e+01    3.89000752e+00       -0.00000010     -0.00000158      0.00000006  
H     -0.65586902    -10.11381625      0.25283019      3.31842445e+00    8.51490885e+00    2.11826699e+00       -0.00000011     -0.00000156      0.00000004  
H     -0.58083075    -10.10257804      0.28680031      4.40192121e+00   -1.01816711e+01    9.35272242e+00       -0.00000011     -0.00000158      0.00000005  
H     -0.50601151    -10.06103268      0.23439626      7.84885591e-01   -1.06774721e+01    5.59779858e+00       -0.00000009     -0.00000152      0.00000004  
H     -0.44823038     -9.96771163      0.18159136     -2.71110222e+00    5.35570849e+00    7.61687192e+00       -0.00000009     -0.00000151      0.00000004  
H     -0.44308378    -10.16273868      0.24395240      2.33592652e+00   -2.60373337e+00   -1.11497274e-01       -0.00000008     -0.00000141      0.00000004  
H     -0.49795287    -10.15093844      0.18685849     -1.05683871e+01   -2.42735219e+00    2.30479043e+00       -0.00000008     -0.00000146      0.00000004  
H     -0.55659445    -10.16000177      0.09763480     -1.46782939e+01   -9.23173957e+00    2.71801873e+00       -0.00000007     -0.00000143      0.00000002  
H     -0.63764960    -10.17761508      0.03703767     -5.15355306e+00   -5.33583663e+00   -1.72444154e+00       -0.00000008     -0.00000144      0.00000002  
H     -0.56277221    -10.08075339      0.04042798     -9.72457953e+00   -1.58500167e+00    8.94535605e+00       -0.00000007     -0.00000148      0.00000002  
H     -0.61272778    -10.06607594      0.07248587      6.57377285e+00   -7.13860715e+00    9.75752868e+00       -0.00000007     -0.00000152      0.00000002  
H     -0.66169616    -10.01912197      0.03774824      1.50738536e+00   -1.85067477e+00    8.11340661e+00       -0.00000007     -0.00000157      0.00000003  
H     -0.57790166    -10.05305363      0.09279861     -7.26041776e+00   -1.11317253e+01    1.03380727e+01       -0.00000006     -0.00000155      0.00000003  
H     -0.52794420    -10.07400788      0.23107876     -4.94723550e+00   -2.57847957e+00   -7.60259519e+00       -0.00000006     -0.00000156      0.00000004  
H     -0.59755400     -9.97077929      0.31667834      6.98126910e+00    1.71412184e+00   -1.03244157e+00       -0.00000008     -0.00000157      0.00000005  
H     -0.55498864     -9.78567770      0.44546564      2.89710401e+00   -1.85755312e-01    1.42079806e+00       -0.00000007     -0.00000173      0.00000006  
H     -0.58234383     -9.83578296      0.39485966      9.75997741e-02    5.73859586e+00   -3.72879123e+00       -0.00000008     -0.00000176      0.00000005  
H     -0.59284120     -9.82137830      0.34595749      6.85948901e+00    1.42103961e+01    5.48496636e+00       -0.00000008     -0.00000180      0.00000005  
H     -0.56632523     -9.82960167      0.29275092      1.42961064e+01   -6.15564231e+00   -7.31919767e-02       -0.00000008     -0.00000180      0.00000004  
H     -0.65233251     -9.80757660      0.32205163      6.63994787e+00    4.65583061e+00   -5.48722876e+00       -0.00000010     -0.00000184      0.00000005  
H     -0.62643648     -9.86794721      0.29333846      1.91210067e+00   -8.06677256e+00    4.61815746e+00       -0.00000010     -0.00000176      0.00000004  
H     -0.70330824     -9.73997410      0.27918001     -4.97489628e+00    9.08096818e+00    2.99699038e+00       -0.00000012     -0.00000183      0.00000003  
H     -0.68611400     -9.83843887      0.28598115      7.56292505e+00    4.37174903e+00   -7.37354443e+00       -0.00000012     -0.00000175      0.00000003  
H     -0.71764780     -9.97731242      0.30155092     -6.32549828e+00    5.62210260e+00    2.89730022e+00       -0.00000012     -0.00000162      0.00000005  
H     -0.66932931     -9.92222858      0.30158250     -1.01133914e+01   -1.04975171e+01   -7.71493274e-01       -0.00000011     -0.00000158      0.00000004  
H     -0.66814683     -9.89409551      0.27111130     -7.77645198e+00   -4.89807966e+00   -8.00559170e+00       -0.00000011     -0.00000166      0.00000004  
H     -0.58095080     -9.91634020      0.31621477      9.50879480e+00    7.23880549e+00   -4.59281002e-01       -0.00000010     -0.00000168      0.00000005  
H     -0.59853071    -10.03398968      0.32441503      2.42368790e+01    5.68380691e-01   -3.16903267e+00       -0.00000011     -0.00000165      0.00000005  
H     -0.60602464    -10.01223743      0.43162840      3.98774408e+00   -3.50216908e+00   -1.71723827e+01       -0.00000010     -0.00000166      0.00000006  
H     -0.51983440    -10.03762927      0.43373222      9.01051573e+00    8.49696005e+00    3.17595664e+00       -0.00000009     -0.00000165      0.00000007  
