96
100000  xi=   0.46703682  Mean pot=  -106.86709965  Cent pot=  -109.49782178 kcal/mol
H      0.66684671      2.31115003     -1.67469842      8.07315853e-01    7.21296655e+00   -7.40289981e+00       11.93309281     -0.10843996      6.57554446  
H      0.67712850      2.25343585     -1.61851310     -1.11594318e+01   -5.36516625e+00    3.46225258e+00       48.64995579     -1.42156124     29.21707714  
H      0.73079584      2.26843164     -1.55739173     -1.34029865e+00    2.91331701e+00   -6.45928185e+00       47.94534653     -1.22102338     35.53750019  
H      0.68927392      2.21921773     -1.55448025      6.42488403e+00    3.28375868e+00    1.89327512e+00       53.81318472     -9.26808418     36.31306494  
H      0.74627683      2.27192015     -1.56256343      3.07294845e+00    4.59004080e+00    2.25998390e+00       56.66261869      1.07717026     34.94806346  
H      0.66816837      2.43511236     -1.58602826     -2.59577760e+00    1.36976810e+01    8.64373462e+00       43.17804261      3.92968454     29.38697579  
H      0.65299231      2.56214800     -1.58990036     -6.88937371e+00    3.17257686e+00    7.07919487e+00       55.43509108      9.62964021     54.14338574  
H      0.61086892      2.48620041     -1.59578535     -1.19783690e+00   -1.09822024e+01    3.93609934e+00       34.74004561      2.29839168     32.22951161  
H      0.64705054      2.40071642     -1.52691015     -9.05086907e+00    1.32857626e+01   -1.45764499e+01       66.62564073     -0.53846008     62.19970463  
H      0.44974542      2.42639665     -1.57458202      3.59660878e+00    1.70322892e+00   -9.96390122e+00        9.14391453     -0.85392335      7.28090722  
H      0.44877839      2.33452557     -1.61414021      5.98840628e+00   -4.10606753e+00    1.32582887e-01       16.28566015     -4.20434633     12.62335462  
H      0.36623465      2.44936886     -1.60418333     -5.91931221e+00    9.17897460e-01    8.71585841e+00      -13.02769088      0.76966316    -11.63640668  
H      0.26149927      2.40855031     -1.56509539      3.44936073e+00   -6.46493099e+00   -1.62472087e+01      -85.96824205      3.87859549    -76.60575993  
H      0.16630660      2.42695944     -1.54946335     -3.61244027e+00   -1.13281641e+01   -9.61453811e+00      -17.42019830     -2.47056177    -26.74828158  
H      0.12105020      2.47004870     -1.49702729     -3.53716326e+00    1.20499454e+01   -2.43289581e+00      -16.11844547     -7.27928279    -28.99942186  
H      0.14167367      2.34867813     -1.40303482      1.46006971e-01    6.86537140e+00    1.18794697e+01       -2.25191358      0.28851608     -7.07185268  
H      0.15306436      2.43720878     -1.35006398     -1.03381188e+01   -1.07387759e+01   -7.10530946e+00       13.54739856     -1.02381607     72.97033957  
H      0.11694865      2.31003732     -1.38740754     -4.63818461e+00   -4.56630644e-01   -1.50908483e+01        4.92311377     -6.13411352     20.75266821  
H      0.21351679      2.31202968     -1.36958122      2.79224335e+00   -5.95090289e+00    4.21454432e+00       -6.89562890      1.35789985    -16.99565003  
H      0.24125084      2.27709108     -1.32644798     -1.60309475e+01    1.44893076e+00    6.28599511e+00       28.01075948     -4.10871443     54.09103611  
H      0.25924383      2.23245585     -1.35266622      6.09929448e+00   -1.09865986e+01    2.77052570e+00       23.05071303     -6.70886493     34.79335385  
H      0.30339612      2.17278639     -1.38325560      5.91185348e+00   -2.34999435e+00    8.07695156e+00       17.43507767     -6.56716589     22.86152807  
H      0.39353359      2.28963338     -1.44752717      5.36043742e+00    5.34988440e+00   -4.18234710e+00      -58.95454474      1.66967998    -63.51548900  
H      0.47655244      2.26707647     -1.45284464      7.10673504e+00    5.81770932e+00    5.92119228e+00      -50.70360583     13.25679145    -38.51830835  
H      0.58590039      2.19090115     -1.50393468      4.98203058e-01   -1.18971335e+00   -1.22716398e+01      -16.15374903      7.15873003     -8.11079080  
H      0.64682286      2.21970216     -1.62733964      1.45145040e+01   -5.36810230e+00    4.39856419e-02        4.83745918     -1.75114788      2.44735329  
H      0.63956860      2.45355996     -1.59870502      1.07158727e+01   -8.11969985e+00   -5.77467830e+00       33.46212539     -0.08327541     17.60885907  
H      0.54112716      2.38887517     -1.56710548     -2.05417657e-01   -5.27573374e+00   -4.31087797e+00     -118.42680137     -1.83549879    -97.38606417  
H      0.50730744      2.26405091     -1.54341493      2.29350790e+00    5.83938861e+00    1.65498368e+01      -22.53907191      7.66595527    -25.53419323  
H      0.50954275      2.19007380     -1.51136987      1.64480737e+00    1.11531175e+01   -5.16502274e+00      -62.62035685     25.62935185    -87.06939420  
H      0.59164925      2.19973969     -1.46968319      5.07917373e+00   -3.70425106e+00   -2.80786157e+00       59.15705714    -12.50780414     48.31953774  
H      0.58690101      2.12622433     -1.61443106      8.15316785e-01   -4.72231849e+00    1.18124706e+00       42.53399655    -16.98403388     29.44575480  
H      0.00209704      2.31719160     -2.04099900      5.47789387e+00   -7.53537428e+00   -2.90801125e+00      -11.93309004      0.10847190     -6.57557007  
H     -0.03640121      2.27428556     -2.04702864     -8.98823932e+00   -3.50310414e-01    2.27924871e+00      -48.64995302      1.42159514    -29.21710402  
H      0.05676659      2.28559737     -2.05698817     -1.28043184e+01   -6.63870665e+00   -1.01597788e+00      -47.94534319      1.22105822    -35.53752705  
H     -0.01104657      2.33983211     -2.02705580     -4.19492304e+00   -1.83619200e-01   -1.54710689e+01      -53.81318028      9.26812086    -36.31309231  
H      0.01780534      2.25807193     -2.01186630     -4.86104044e+00    1.98258365e+00    1.52368431e+01      -56.66261484     -1.07713338    -34.94809151  
H     -0.01045784      2.37335003     -2.04790145      1.40847981e+00   -3.38057877e+00    5.28676629e+00      -43.17803957     -3.92964878    -29.38700253  
H      0.02149285      2.45245030     -2.20668527      1.38455817e+01   -1.00460562e+01   -3.68635531e+00      -55.43508818     -9.62960467    -54.14341237  
H      0.01530525      2.44679835     -2.14831007      5.56761535e+00   -2.02889770e-01   -1.18551298e+01      -34.74004309     -2.29835940    -32.22953536  
H     -0.04138653      2.40628049     -2.16961456     -4.16619084e+00   -1.58493829e+01    4.86118679e+00      -66.62563750      0.53849546    -62.19973033  
H     -0.14045784      2.48151524     -2.04453652     -3.71211809e+00   -3.84252613e+00    2.95061089e+00       -9.14391185      0.85395851     -7.28093204  
H     -0.14702432      2.48834047     -2.07596006     -4.40178082e+00    2.60649145e+00    5.18721655e+00      -16.28565639      4.20438268    -12.62337992  
H     -0.17160523      2.48114309     -2.08458429      2.99024084e+00    5.79270532e+00    7.38393727e+00       13.02769344     -0.76962669     11.63638083  
H     -0.21789620      2.43017890     -1.99228160      1.62452151e+00    8.57558583e-01   -6.63544046e+00       85.96824444     -3.87855780     76.60573306  
H     -0.21845370      2.37239159     -2.14025282     -7.68632276e+00    4.73478031e+00   -9.92319709e+00       17.42020096      2.47060042     26.74825388  
H     -0.21362333      2.31890581     -2.09915323     -1.56633109e+01    1.59819061e+01    4.45770359e+00       16.11844722      7.27932076     28.99939416  
H     -0.08054171      2.37714346     -2.10086991      5.28157350e+00   -5.73858812e+00    9.02619967e+00        2.25191669     -0.28847515      7.07182535  
H     -0.00706815      2.44931103     -2.21258623      3.55349491e+00   -6.96186182e+00    4.77499676e+00      -13.54739508      1.02385726    -72.97036732  
H     -0.05409276      2.52315663     -2.10841222     -3.60889471e+00    1.82276249e+00    1.94161659e+01       -4.92310780      6.13417137    -20.75270635  
H     -0.05677198      2.36525289     -2.03575929     -8.59829610e+00   -9.63484750e+00   -2.90672383e+00        6.89563371     -1.35785487     16.99561866  
H     -0.14521666      2.33378028     -2.07274864      1.29110591e+00   -7.28289742e+00   -5.73043928e+00      -28.01075425      4.10876192    -54.09106949  
H     -0.17898958      2.36000421     -2.01414846     -7.26022107e+00    4.99288380e+00   -8.47989537e+00      -23.05070687      6.70891496    -34.79338851  
H     -0.15897701      2.34694783     -1.98953845     -6.04139725e+00    7.84049313e+00    1.66318648e+00      -17.43506992      6.56721660    -22.86156401  
H     -0.05656852      2.30238074     -1.93245071      3.59076763e+00    4.17653547e-01   -1.13855963e+01       58.95454870     -1.66963909     63.51545800  
H     -0.05211654      2.40530008     -1.85446142     -9.78379989e-01    1.43277822e+01   -5.10484080e+00       50.70361156    -13.25674774     38.51827531  
H     -0.01215985      2.45593744     -1.80421942      2.43954203e-02    9.04361661e+00    7.23117387e+00       16.15375515     -7.15868798      8.11075906  
H      0.01113156      2.44982402     -1.94894930     -4.63356957e-01    3.52824534e-01    7.80865931e-01       -4.83745417      1.75118434     -2.44738106  
H     -0.06466253      2.45531286     -1.96929462     -6.04712483e+00   -3.02516521e+00   -6.64696563e+00      -33.46212170      0.08331167    -17.60888667  
H      0.06225914      2.38145313     -1.96089358      1.30087254e+00   -1.27033736e+01    1.16042334e+01      118.42680532      1.83553633     97.38603538  
H      0.05255207      2.41872061     -2.05859994     -2.96889343e+00    1.81876835e+01    8.94842446e-01       22.53907773     -7.66591530     25.53416388  
H      0.14288878      2.34013812     -2.02117724      3.95208700e+00    7.73237506e+00    6.53493880e-01       62.62036327    -25.62931110     87.06936513  
H     -0.08650047      2.34312382     -2.02359677      1.03299950e+01    1.12013618e+00    2.28294703e-01      -59.15705259     12.50784165    -48.31956644  
H     -0.05956629      2.38436246     -2.06197276      7.96544786e+00    5.24137092e+00   -2.88757722e+00      -42.53399180     16.98407029    -29.44578307  
H     -0.32886395     -4.78209396      3.80665045      1.76554679e+01    6.73936118e+00   -4.10488966e-01       -0.00000278     -0.00003194      0.00002561  
H     -0.28317214     -4.79781613      3.74999515     -2.99516395e+00   -1.00831753e+01   -3.41859575e+00       -0.00000277     -0.00003391      0.00002688  
H     -0.29274281     -4.82526685      3.66416997      5.17724638e+00    2.04363153e+01    3.90130905e+00       -0.00000334     -0.00003484      0.00002686  
H     -0.47918442     -4.83578471      3.54138226      3.43696389e+00    9.89726487e+00    2.13831429e+00       -0.00000444     -0.00003668      0.00002737  
H     -0.40406454     -4.82454871      3.57544375      4.51339637e+00   -8.79910015e+00    9.36484583e+00       -0.00000385     -0.00003688      0.00002805  
H     -0.32931400     -4.78300610      3.52298841      9.02284608e-01   -9.29472805e+00    5.61439816e+00       -0.00000304     -0.00003576      0.00002675  
H     -0.27150041     -4.68967823      3.47017745     -2.59649865e+00    6.73792309e+00    7.63396801e+00       -0.00000290     -0.00003554      0.00002663  
H     -0.26633941     -4.88471441      3.53260011      2.44925426e+00   -1.22079814e+00   -9.97050186e-02       -0.00000252     -0.00003228      0.00002375  
H     -0.32126529     -4.87290663      3.47541008     -1.04501346e+01   -1.04504383e+00    2.32489321e+00       -0.00000323     -0.00003538      0.00002570  
H     -0.37982709     -4.88197402      3.38628477     -1.45669540e+01   -7.84910546e+00    2.72960564e+00       -0.00000268     -0.00003517      0.00002482  
H     -0.46095834     -4.89958876      3.32562022     -5.03562707e+00   -3.95310467e+00   -1.70699728e+00       -0.00000375     -0.00003635      0.00002530  
H     -0.38603451     -4.80272157      3.32902438     -9.61070022e+00   -2.02749864e-01    8.96155793e+00       -0.00000256     -0.00003647      0.00002585  
H     -0.43599151     -4.78805276      3.36112678      6.68779286e+00   -5.75566274e+00    9.76993625e+00       -0.00000240     -0.00003769      0.00002687  
H     -0.48500409     -4.74109068      3.32630143      1.62521686e+00   -4.68395902e-01    8.13334759e+00       -0.00000266     -0.00003866      0.00002770  
H     -0.40113455     -4.77502751      3.38145324     -7.14906419e+00   -9.74905378e+00    1.03492914e+01       -0.00000176     -0.00003798      0.00002771  
H     -0.35125727     -4.79598098      3.51965241     -4.82892909e+00   -1.19578670e+00   -7.58441201e+00       -0.00000311     -0.00004093      0.00002733  
H     -0.42080827     -4.69274804      3.60528521      7.09448246e+00    3.09639888e+00   -1.01713425e+00       -0.00000348     -0.00004119      0.00002775  
H     -0.37826021     -4.50765438      3.73409836      3.01184578e+00    1.19724268e+00    1.43389380e+00       -0.00000597     -0.00005785      0.00003814  
H     -0.40564530     -4.55775089      3.68341628      2.14909822e-01    7.12085972e+00   -3.70916959e+00       -0.00000481     -0.00004498      0.00003136  
H     -0.41607549     -4.54335279      3.63461481      6.97102135e+00    1.55931902e+01    5.49594612e+00       -0.00000523     -0.00004749      0.00003338  
H     -0.38964119     -4.55157381      3.58131673      1.44146767e+01   -4.77298432e+00   -5.43839631e-02       -0.00000615     -0.00005003      0.00003466  
H     -0.47557974     -4.52954573      3.61066861      6.75260152e+00    6.03820658e+00   -5.47281115e+00       -0.00000775     -0.00005071      0.00003594  
H     -0.44971625     -4.58992323      3.58196150      2.02757228e+00   -6.68374943e+00    4.63202464e+00       -0.00000396     -0.00004089      0.00003099  
H     -0.52660271     -4.46194163      3.56774164     -4.85818185e+00    1.04631840e+01    3.01617836e+00       -0.00000573     -0.00004371      0.00003304  
H     -0.50935172     -4.56041402      3.57463891      7.67477055e+00    5.75468655e+00   -7.36265949e+00       -0.00000612     -0.00004206      0.00003175  
H     -0.54096532     -4.69928356      3.59011029     -6.20678948e+00    7.00467701e+00    2.91665544e+00       -0.00000501     -0.00003646      0.00002777  
H     -0.49257088     -4.64419858      3.59020932     -1.00012159e+01   -9.11503343e+00   -7.57922364e-01       -0.00000369     -0.00003626      0.00002760  
H     -0.49143491     -4.61607115      3.55972425     -7.66027560e+00   -3.51507729e+00   -7.99086630e+00       -0.00000395     -0.00003754      0.00002880  
H     -0.40423746     -4.63830738      3.60478325      9.62486208e+00    8.62105437e+00   -4.40677893e-01       -0.00000583     -0.00003997      0.00002935  
H     -0.42177314     -4.75596505      3.61307128      2.43491209e+01    1.95137458e+00   -3.15803686e+00       -0.00000643     -0.00004075      0.00002907  
H     -0.42934191     -4.73420719      3.72018315      4.10643694e+00   -2.11969216e+00   -1.71526057e+01       -0.00000455     -0.00003751      0.00002870  
H     -0.34307119     -4.75959938      3.72236796      9.12230063e+00    9.87954325e+00    3.18873589e+00       -0.00000475     -0.00003641      0.00002828  
