3
100000  xi=   0.10824633  Mean pot=  -106.39597358  Cent pot=  -109.06163038 kcal/mol
H      0.01345651      4.81972503     -0.32713378       0.19118841
H     -0.69148062      4.64668124     -0.05485492       0.19467567
H      0.67802411     -9.46640627      0.38198871       0.19078790
3
200000  xi=   0.11276019  Mean pot=  -106.85241033  Cent pot=  -109.34859767 kcal/mol
H     -0.12195815     -2.00261136     -4.53529315       0.14753572
H      0.06939443     -2.28534281     -3.89793478       0.18858343
H      0.05256371      4.28795417      8.43322793       0.28117473
3
300000  xi=   0.11555654  Mean pot=  -104.83299394  Cent pot=  -109.40766549 kcal/mol
H      2.69402656     -1.91912814      3.81925821       0.25327036
H      2.04682258     -1.66715390      3.51909588       0.16322581
H     -4.74084914      3.58628204     -7.33835409       0.18148656
3
400000  xi=   0.11014125  Mean pot=  -105.69216203  Cent pot=  -109.06464899 kcal/mol
H      3.15714823     -0.65489826     -3.15582111       0.11889433
H      3.58782637     -0.09842740     -3.48091420       0.25013760
H     -6.74497460      0.75332565      6.63673531       0.20646716
3
500000  xi=   0.11023766  Mean pot=  -107.45880249  Cent pot=  -109.07263321 kcal/mol
H      0.06541886     -2.79189847     -3.47275505       0.20496521
H     -0.33491394     -3.24726937     -3.84345154       0.16325176
H      0.26949508      6.03916784      7.31620659       0.21324524
3
600000  xi=   0.10940890  Mean pot=  -107.19680883  Cent pot=  -109.49766530 kcal/mol
H      4.24760389     -0.16978995      1.57980593       0.17424939
H      4.46048069     -0.63022976      2.12145076       0.20837219
H     -8.70808458      0.80001971     -3.70125669       0.17280699
3
700000  xi=   0.11201254  Mean pot=  -107.08652144  Cent pot=  -109.41942234 kcal/mol
H     -1.35927968      3.28077483     -3.21696304       0.18904279
H     -0.93231205      3.66829332     -2.77241146       0.21433091
H      2.29159173     -6.94906815      5.98937450       0.19360798
3
800000  xi=   0.10403927  Mean pot=  -106.01076437  Cent pot=  -109.42420946 kcal/mol
H      4.89203270     -0.73821774     -0.71328333       0.24257839
H      4.51081536     -0.11747354     -0.70607833       0.17487593
H     -9.40284806      0.85569128      1.41936166       0.18844330
3
900000  xi=   0.10966178  Mean pot=  -105.72746848  Cent pot=  -109.29326193 kcal/mol
H     -0.81877789      4.67038763     -1.06157080       0.17906129
H     -0.09076651      4.57672866     -0.84821612       0.18384162
H      0.90954440     -9.24711630      1.90978692       0.21416484
3
1000000  xi=   0.09974256  Mean pot=  -107.68676503  Cent pot=  -109.41040780 kcal/mol
H      3.20161841      2.30091261     -2.97009303       0.14691723
H      3.49748574      1.83375245     -2.49761521       0.18038848
H     -6.69910414     -4.13466506      5.46770824       0.15413707
3
1100000  xi=   0.10310962  Mean pot=  -107.18243746  Cent pot=  -109.37693079 kcal/mol
H      3.23567366      2.18500091      2.18615293       0.14161277
H      3.98959486      2.25309076      2.24170397       0.16333356
H     -7.22526852     -4.43809167     -4.42785691       0.22608554
3
1200000  xi=   0.10742890  Mean pot=  -107.63167727  Cent pot=  -109.32238134 kcal/mol
H     -1.56913638     -4.25292769     -0.36618228       0.18004214
H     -1.20549010     -4.83314441     -0.13886561       0.19102740
H      2.77462648      9.08607211      0.50504789       0.18927097
3
1300000  xi=   0.10457973  Mean pot=  -106.38319504  Cent pot=  -109.49312862 kcal/mol
H     -2.19768785     -4.02623172     -0.36786794       0.21201047
H     -2.70780407     -4.05674158     -0.90994420       0.17544248
H      4.90549191      8.08297330      1.27781214       0.26120008
3
1400000  xi=   0.10459616  Mean pot=  -106.54061792  Cent pot=  -109.27462077 kcal/mol
H      2.09577823     -0.81881088      4.05793364       0.14023737
H      2.82416867     -1.00157290      3.90984293       0.21730052
H     -4.91994690      1.82038377     -7.96777657       0.16988188
3
1500000  xi=   0.10426879  Mean pot=  -106.43354252  Cent pot=  -108.88032027 kcal/mol
H     -1.29131780      3.81225775      2.47906695       0.15343128
H     -0.70521402      4.17313596      2.32852127       0.21337694
H      1.99653182     -7.98539371     -4.80758823       0.19452454
3
1600000  xi=   0.11248828  Mean pot=  -107.21743527  Cent pot=  -109.49753673 kcal/mol
H     -3.28513149      1.62415374     -2.72748437       0.14926717
H     -3.40796263      1.20876581     -3.33035558       0.14205454
H      6.69309412     -2.83291955      6.05783995       0.16050043
3
1700000  xi=   0.10743090  Mean pot=  -106.08280126  Cent pot=  -105.63974424 kcal/mol
H      2.24766813      3.80110152      2.18116162       0.22102640
H      2.23631164      3.71177343      1.53317725       0.18643057
H     -4.48397977     -7.51287495     -3.71433887       0.22759339
3
1800000  xi=   0.10842313  Mean pot=  -106.21086765  Cent pot=  -107.52670733 kcal/mol
H     -2.44143830      0.13220644     -3.67753356       0.23949896
H     -2.80254281      0.14911946     -4.25044080       0.20207565
H      5.24398111     -0.28132591      7.92797436       0.13107032
3
1900000  xi=   0.10776707  Mean pot=  -106.82671614  Cent pot=  -109.33949768 kcal/mol
H     -1.48671404     -3.59061517      3.10964551       0.20375674
H     -1.85616908     -2.94716001      2.93791154       0.17097965
H      3.34288312      6.53777518     -6.04755705       0.13673765
3
2000000  xi=   0.11424855  Mean pot=  -107.82581742  Cent pot=  -108.10725286 kcal/mol
H     -2.75494882      4.10830617      0.30825467       0.17493730
H     -2.08351286      3.98397450      0.23195026       0.20991775
H      4.83846168     -8.09228067     -0.54020493       0.22457092
