96
100000  xi=   0.50700645  Mean pot=  -105.50515659  Cent pot=  -108.93099751 kcal/mol
H      0.45141784      2.34372671     -2.10633037     -2.04879420e+00    1.67644825e+00   -6.76511281e+00        0.07424417      0.11779070     -0.11408002  
H      0.52598460      2.25999428     -2.12682275     -9.39043834e+00   -1.72673294e+00    1.24778364e+00       36.63700716     31.75525927    -42.57760475  
H      0.55190138      2.27887937     -2.08482518     -4.90424975e+00   -1.01238343e+00    4.08394500e-02       15.23406710     16.88519858    -20.74588459  
H      0.52562986      2.28765045     -2.06749748     -8.34868955e+00   -9.81537481e-01   -1.66748882e+00       27.40976916     27.28238834    -32.46058535  
H      0.54095594      2.28769475     -2.05243984      7.97416893e+00    6.86127192e+00    6.83898965e+00       17.64996840     21.36772935    -22.81235487  
H      0.48118832      2.51608261     -2.02007969      2.21567457e+00    1.07578467e+01    8.32956410e+00       27.18377739     46.95161873    -27.40479094  
H      0.47415918      2.65360907     -2.15897902      1.13263311e+00    3.43343687e+00    1.80247658e+00       33.32896624     69.33070317    -47.69448308  
H      0.44426499      2.54003819     -2.18706623      5.44579091e+00   -3.45006327e+00   -2.21707294e-01       29.90669691     51.32417503    -53.98726544  
H      0.38939383      2.40921677     -2.21684809     -7.78639791e+00   -2.94384590e+00   -5.37473584e-01       20.17449284     36.07510691    -58.52846948  
H      0.16060939      2.52157406     -2.20814318      2.50220115e+00   -2.29370071e+00   -1.19362042e+01        8.23117667     55.17311086    -75.68249658  
H      0.14783729      2.44456761     -2.21288727      1.12664934e+01   -4.40336691e+00   -1.30747761e+00        5.33052042     39.98636890    -57.53038173  
H      0.11953457      2.50437720     -2.14127510     -2.69265163e+00    4.80197150e-01    1.28652694e+01        3.03480856     13.17151479    -14.80012192  
H      0.09614429      2.49745423     -2.02839794     -1.43826817e+00   -1.56175220e+01   -7.04719881e+00        8.28700342     21.89614194    -17.76321721  
H      0.06274706      2.53704243     -2.09329603     -8.91105908e+00   -1.01307792e+01   -1.47717239e+01       21.30751668     59.90190322    -40.16626784  
H      0.03922996      2.57718459     -1.97802103     -8.80639228e+00    1.62628894e+01   -5.91962510e-01       21.50293643     70.09818190    -29.48670509  
H      0.10974161      2.56884508     -1.97332133     -1.68538994e+00    3.69639993e+00    1.74896788e+01       22.72517036     82.79232358    -41.08476169  
H      0.18080714      2.63388989     -1.86215425     -1.64259775e+01   -1.28950006e+01   -2.65513546e+00       23.50578283     66.04286424    -11.03169353  
H      0.21193176      2.51858394     -1.77322162      3.84698345e+00   -6.82391055e-01   -6.69587515e+00       10.18908885     14.84096873     -0.56149992  
H      0.25782810      2.47864107     -1.67677951     -7.10892099e+00   -1.53969891e+01    3.16512428e+00       29.07219987     47.68592523      5.29720049  
H      0.20425218      2.35468589     -1.65809709     -1.99186360e+01   -1.89244764e+00    3.90887149e+00      -52.12559839    -71.19017583    -14.89234084  
H      0.29433228      2.31268550     -1.69920553     -8.32845084e+00   -7.45276671e+00    6.74860397e+00       -1.02785691     -0.81390862      0.00867943  
H      0.33090649      2.25355907     -1.75929257      2.07578867e-01    1.07134155e+00   -7.53162295e-01       -8.23927693     -5.78574243      1.66445093  
H      0.42316830      2.34338746     -1.74164084      1.32904941e+00   -3.87510951e+00   -3.81049882e+00       22.91736804     20.55309745     -3.01830232  
H      0.48436162      2.36548908     -1.83621401      2.43670958e+00    5.96880337e+00    1.27064846e+00       47.47920004     37.38083580    -26.08052092  
H      0.56392093      2.39296980     -1.84008284     -2.34206098e+00    1.10258153e+01    2.82755208e+00       57.83485838     52.24861741    -31.89625943  
H      0.53920698      2.37201494     -1.92712864      1.29428465e+01   -1.76835174e+00    4.38512560e+00        2.32307218      2.36436152     -1.18578136  
H      0.50519928      2.54110743     -1.92307545     -1.25966327e+00   -1.12233944e+01   -1.10664874e+01       32.68219027     38.63293900    -16.19351091  
H      0.40682097      2.48387581     -2.00502862     -1.49845248e+00    5.85720039e+00   -3.66863265e+00       17.80519183     39.38547099    -28.74326743  
H      0.42381856      2.45250266     -2.03488645     -9.98188320e+00    1.27296152e+01    1.99516032e+01       28.82926046     52.00630489    -35.36031749  
H      0.47352338      2.33930141     -2.08327742      7.72199949e-01    8.81424665e+00   -2.03623862e+00       33.95258905     53.25498503    -56.25945752  
H      0.43792953      2.30639557     -2.04114978      7.27337626e+00   -3.01453826e+00    2.11752397e+00       36.59755844     41.05896568    -46.51030977  
H      0.41390382      2.24666118     -2.12237364      8.63357503e+00   -7.60744389e+00    1.61285855e-01       11.67905617     12.83271188    -16.98759085  
H      0.14574815      1.85814506     -1.63610739      8.39660895e+00   -1.83184270e+00   -3.63684999e+00       -0.07424577     -0.11769966      0.11400105  
H      0.04292683      1.84130074     -1.56543716     -1.06914252e+01   -3.82543783e+00    4.40067706e+00      -36.63701244    -31.75517686     42.57753762  
H      0.16383320      1.84874685     -1.55634741     -9.17346343e+00   -2.55185405e+00   -7.60257924e+00      -15.23407073    -16.88510267     20.74580844  
H      0.08082724      1.84491248     -1.54072885      1.06404870e+01    4.25004415e+00   -1.20056830e+01      -27.40977212    -27.28228714     32.46050705  
H      0.15127166      1.81592412     -1.54877484     -9.69310071e+00   -1.30227298e-01    1.05707518e+01      -17.64997099    -21.36762095     22.81226854  
H      0.10474977      1.86589854     -1.64057868     -3.34095290e+00   -2.73072952e-01    5.50895595e+00      -27.18378092    -46.95151554     27.40470028  
H      0.12850089      1.93457132     -1.66433306      5.89013859e+00   -1.01447189e+01    1.49825729e+00      -33.32896863    -69.33058636     47.69438291  
H      0.11008938      1.96654349     -1.58381465     -1.00985630e+00   -7.57294339e+00   -7.78433180e+00      -29.90669906    -51.32407411     53.98718792  
H      0.14449409      1.97129644     -1.50636522     -5.36837227e+00    5.48023375e-01   -9.27315943e+00      -20.17449171    -36.07499653     58.52839287  
H      0.07682361      1.95996163     -1.43776491     -2.54858131e+00    3.12816988e-01    4.83636087e+00       -8.23117008    -55.17297684     75.68240528  
H      0.08214835      1.95180736     -1.50393032     -9.61826320e+00    3.07214134e+00    6.53440238e+00       -5.33051167    -39.98623628     57.53029264  
H      0.00326104      1.99972481     -1.57422804     -1.69104222e-01    6.39168323e+00    3.14334401e+00       -3.03480553    -13.17137564     14.80002189  
H     -0.12435302      1.91484348     -1.55575589      6.57748685e+00    1.01732833e+01   -1.59231409e+01       -8.28700700    -21.89599847     17.76310483  
H     -0.18667746      1.83583157     -1.62310983     -2.32479315e+00    3.70444094e+00   -4.86114322e+00      -21.30752069    -59.90175323     40.16614235  
H     -0.20365557      1.78539118     -1.64495320     -1.03251989e+01    1.19275376e+01    2.53054297e+00      -21.50294194    -70.09805398     29.48658827  
H     -0.12037506      1.73048236     -1.55729254      7.17432742e+00   -2.40093801e+00    3.32242452e+00      -22.72517376    -82.79219169     41.08464196  
H     -0.10665124      1.82623306     -1.72724350      9.70926241e+00   -4.64531582e+00    2.34571546e-01      -23.50578476    -66.04278490     11.03161227  
H     -0.22087801      1.88817022     -1.74936803     -1.20295238e+01    2.21265676e+00    1.09327654e+01      -10.18909223    -14.84091085      0.56144095  
H     -0.17287358      1.77217841     -1.75525647      1.36647680e+00   -2.26151237e-02   -1.95207987e+00      -29.07220090    -47.68586586     -5.29726018  
H     -0.18006589      1.82980625     -1.76789728      5.24732084e+00   -3.78246387e+00   -3.43940585e+00       52.12559904     71.19023077     14.89228931  
H     -0.28584163      1.85328092     -1.69431194      7.22885573e+00    1.62799204e+00   -1.25521769e+01        1.02785616      0.81396857     -0.00873335  
H     -0.25833324      1.83978919     -1.64026046     -2.68725083e-01    4.57887178e+00    1.04038472e+01        8.23927436      5.78580718     -1.66451021  
H     -0.15799638      1.82217735     -1.66509813      7.68600799e+00    9.80785396e+00   -1.18466743e+01      -22.91737057    -20.55303181      3.01824112  
H     -0.13172408      1.88043711     -1.49779410      3.75599766e+00    1.43420106e+01   -5.48666276e-01      -47.47920837    -37.38073625     26.08043338  
H     -0.06202277      1.82748432     -1.49487006      2.93274427e+00   -3.01219628e+00   -7.95409514e+00      -57.83486542    -52.24851623     31.89616979  
H      0.04698327      1.87101817     -1.67585767      1.16971082e+00   -3.07789872e+00   -3.65504010e+00       -2.32307505     -2.36428557      1.18571222  
H     -0.00214361      1.94138627     -1.67169355      5.99717934e+00    2.37701313e-01   -1.44377867e+00      -32.68219378    -38.63286131     16.19343923  
H      0.12478008      1.85999184     -1.54972155      2.65712630e+00   -2.36701293e+01    1.08718783e+01      -17.80518916    -39.38533076     28.74314510  
H      0.06423352      1.80382984     -1.59383795      9.37157239e+00    1.14618183e+01   -2.60071419e+00      -28.82926363    -52.00618125     35.36020571  
H      0.10707245      1.76451739     -1.47606644      4.89225082e+00    1.02316487e+01   -2.56147212e+00      -33.95259004    -53.25485234     56.25935035  
H     -0.00454704      1.80997724     -1.47882322      8.19737713e+00    5.99250389e-01   -4.79226491e+00      -36.59756350    -41.05885884     46.51022226  
H      0.04157779      1.83755179     -1.58080834      2.16220264e-01    8.28525770e+00   -1.95543399e+00      -11.67906085    -12.83261615     16.98751327  
H     -0.25704418     -4.35566394      3.83337297      1.75892380e+01    6.57578628e+00   -3.17898375e-01        0.00000159     -0.00009104      0.00007896  
H     -0.21138166     -4.37139263      3.77677776     -3.05878066e+00   -1.02462309e+01   -3.33111500e+00        0.00000528     -0.00008241      0.00006713  
H     -0.22091475     -4.39881941      3.69087335      5.11032421e+00    2.02713086e+01    3.99549593e+00        0.00000362     -0.00009591      0.00007615  
H     -0.40738913     -4.40936916      3.56815661      3.37296704e+00    9.73505731e+00    2.22643625e+00        0.00000296     -0.00010120      0.00007829  
H     -0.33225181     -4.39810147      3.60217819      4.44784705e+00   -8.96390885e+00    9.45629108e+00        0.00000259     -0.00010840      0.00008634  
H     -0.25749701     -4.35657660      3.54971700      8.36420842e-01   -9.45793544e+00    5.70638525e+00        0.00000353     -0.00010319      0.00009066  
H     -0.19970757     -4.26324832      3.49695454     -2.66028038e+00    6.57469082e+00    7.72170366e+00        0.00000239     -0.00011680      0.00010017  
H     -0.19451053     -4.45826554      3.55930144      2.38231617e+00   -1.38562655e+00   -5.43549700e-03        0.00000215     -0.00010092      0.00007753  
H     -0.24947202     -4.44648778      3.50218794     -1.05139060e+01   -1.20724522e+00    2.41255876e+00       -0.00000113     -0.00011039      0.00007661  
H     -0.30801013     -4.45552177      3.41301000     -1.46328373e+01   -8.01408243e+00    2.82170965e+00       -0.00000659     -0.00013402      0.00009130  
H     -0.38914453     -4.47315931      3.35235524     -5.10114776e+00   -4.11613689e+00   -1.61564925e+00       -0.00000875     -0.00013262      0.00008908  
H     -0.31423855     -4.37628521      3.35579480     -9.67474955e+00   -3.66307984e-01    9.04972784e+00       -0.00000303     -0.00013915      0.00010003  
H     -0.36416215     -4.36160358      3.38782789      6.62094092e+00   -5.92032233e+00    9.86416271e+00        0.00000358     -0.00014348      0.00011238  
H     -0.41321214     -4.31466949      3.35308216      1.56156005e+00   -6.30623467e-01    8.22062298e+00        0.00000400     -0.00014999      0.00012549  
H     -0.32931401     -4.34857362      3.40817130     -7.21519103e+00   -9.91411555e+00    1.04420477e+01        0.00000550     -0.00012792      0.00011682  
H     -0.27944739     -4.36955599      3.54639633     -4.89412325e+00   -1.35849726e+00   -7.49384677e+00        0.00000341     -0.00013189      0.00011973  
H     -0.34900996     -4.26631134      3.63205056      7.03019852e+00    2.93263917e+00   -9.28421889e-01        0.00000193     -0.00007934      0.00008126  
H     -0.30643269     -4.08121169      3.76080383      2.94511602e+00    1.03285856e+00    1.52788099e+00        0.00000338     -0.00005788      0.00005897  
H     -0.33385522     -4.13133246      3.71020105      1.51319578e-01    6.95856808e+00   -3.62210032e+00        0.00000103     -0.00005937      0.00005968  
H     -0.34425263     -4.11690219      3.66132847      6.90465524e+00    1.54279755e+01    5.58929244e+00       -0.00000066     -0.00005495      0.00005153  
H     -0.31783575     -4.12515420      3.60807005      1.43497343e+01   -4.93553594e+00    3.54596024e-02        0.00000075     -0.00005995      0.00005392  
H     -0.40377842     -4.10310805      3.63742767      6.68804826e+00    5.87402792e+00   -5.38336426e+00        0.00000257     -0.00006475      0.00005928  
H     -0.37789087     -4.16348591      3.60867194      1.96093797e+00   -6.84792092e+00    4.72562449e+00        0.00000253     -0.00006564      0.00006120  
H     -0.45481341     -4.03552305      3.59452783     -4.92175210e+00    1.03006044e+01    3.10328675e+00        0.00000833     -0.00009956      0.00008754  
H     -0.43752651     -4.13396470      3.60134844      7.60816740e+00    5.58937438e+00   -7.26887803e+00        0.00000704     -0.00010118      0.00008964  
H     -0.46916353     -4.27286655      3.61687198     -6.27144552e+00    6.84221318e+00    3.00587049e+00        0.00000287     -0.00007595      0.00006913  
H     -0.42076587     -4.21775783      3.61696099     -1.00660681e+01   -9.27952373e+00   -6.67773586e-01        0.00000351     -0.00007769      0.00007168  
H     -0.41961182     -4.18963693      3.58644045     -7.72676072e+00   -3.67897526e+00   -7.89774409e+00       -0.00000267     -0.00014023      0.00012233  
H     -0.33244759     -4.21188604      3.63156852      9.56130286e+00    8.45821891e+00   -3.53423631e-01        0.00000317     -0.00012364      0.00011177  
H     -0.34994609     -4.32951611      3.63977700      2.42823106e+01    1.78615378e+00   -3.06399841e+00        0.00000098     -0.00013268      0.00010717  
H     -0.35754367     -4.30779166      3.74695185      4.04209617e+00   -2.28203299e+00   -1.70639606e+01        0.00000506     -0.00010684      0.00008751  
H     -0.27126254     -4.33315640      3.74911135      9.05710714e+00    9.71481377e+00    3.27955468e+00        0.00000468     -0.00009573      0.00007758  
