3
100000  xi=   0.90262006  Mean pot=  -103.82173251  Cent pot=  -107.53945034 kcal/mol
H     -0.66357968      0.10902653     -0.93581882       0.24057821
H      0.07662926      0.03558714     -0.62347154       0.15955946
H      0.58695043     -0.14461367      1.55929036       0.18553831
3
200000  xi=   0.89925903  Mean pot=  -105.99972199  Cent pot=  -108.94143025 kcal/mol
H     -0.33974295     -0.35454636      0.42864882       0.17606624
H     -0.98395296      0.02342765      0.49613260       0.21545543
H      1.32369591      0.33111871     -0.92478143       0.12579117
3
300000  xi=   0.89186228  Mean pot=  -107.47210468  Cent pot=  -108.97496955 kcal/mol
H     -0.50767718     -0.36751664     -0.23144850       0.18441692
H     -0.27963665     -1.04721956     -0.31330935       0.26797124
H      0.78731383      1.41473621      0.54475785       0.14569404
3
400000  xi=   0.90192808  Mean pot=  -105.60741038  Cent pot=  -108.63885127 kcal/mol
H     -0.20121377     -0.99464239      0.08001391       0.14682155
H      0.28903177     -0.56623833     -0.27382119       0.14606292
H     -0.08781800      1.56088073      0.19380728       0.11641374
3
500000  xi=   0.88520822  Mean pot=  -106.54654393  Cent pot=  -109.14904622 kcal/mol
H      0.13132547     -0.25195601      0.55728559       0.19693957
H      0.30329992      0.03289084      1.19550928       0.15434175
H     -0.43462539      0.21906517     -1.75279487       0.19444976
3
600000  xi=   0.89589140  Mean pot=  -106.90082409  Cent pot=  -108.99211499 kcal/mol
H      0.50883103      0.40926170      0.15113425       0.18916253
H      0.87837962      0.45016700     -0.48145725       0.23950389
H     -1.38721065     -0.85942870      0.33032299       0.21616264
3
700000  xi=   0.90273664  Mean pot=  -105.22182334  Cent pot=  -109.02033495 kcal/mol
H     -0.38074529     -0.00896915      0.33994217       0.21358176
H     -1.11210311     -0.18948901      0.44819337       0.20362714
H      1.49284840      0.19845816     -0.78813554       0.19217822
3
800000  xi=   0.88544826  Mean pot=  -106.60065961  Cent pot=  -107.10862991 kcal/mol
H     -0.73593567     -0.17616413      0.76788890       0.18522656
H     -0.25886036      0.28003150      0.62011788       0.20306428
H      0.99479603     -0.10386737     -1.38800678       0.17476515
3
900000  xi=   0.90350101  Mean pot=  -105.66900745  Cent pot=  -108.71053154 kcal/mol
H      0.04750445      0.58821517      0.88234829       0.17976380
H     -0.33148336      0.05753749      0.54174417       0.22204645
H      0.28397891     -0.64575266     -1.42409246       0.19320000
3
1000000  xi=   0.89911652  Mean pot=  -106.32442220  Cent pot=  -108.38636626 kcal/mol
H      0.81088367     -0.61685658      0.25361523       0.16999823
H      0.53451896      0.02371408      0.39292438       0.18579013
H     -1.34540263      0.59314250     -0.64653961       0.19730937
3
1100000  xi=   0.90277620  Mean pot=  -103.87635397  Cent pot=  -108.15804107 kcal/mol
H      0.13265215     -0.62018673     -0.60553928       0.21855884
H      0.69828089     -0.29512051     -0.22936495       0.17570071
H     -0.83093305      0.91530725      0.83490423       0.18700487
3
1200000  xi=   0.90503945  Mean pot=  -106.75529070  Cent pot=  -107.18006916 kcal/mol
H     -0.18766414     -0.53989494      0.03330622       0.26041502
H      0.12490347     -0.93163630      0.50188299       0.22403799
H      0.06276067      1.47153123     -0.53518921       0.23804151
3
1300000  xi=   0.89785925  Mean pot=  -106.92212800  Cent pot=  -108.28866318 kcal/mol
H     -0.34570841      0.21098432     -0.31983584       0.18685880
H     -0.92466443      0.27021109     -0.70590657       0.18447714
H      1.27037284     -0.48119541      1.02574241       0.20192678
3
1400000  xi=   0.89294932  Mean pot=  -104.89699655  Cent pot=  -108.64555040 kcal/mol
H      0.67126027      0.27156923     -0.53576620       0.17032568
H      0.81526336      0.14242149      0.19287137       0.16279173
H     -1.48652363     -0.41399072      0.34289482       0.18701959
3
1500000  xi=   0.89633061  Mean pot=  -107.82144901  Cent pot=  -109.12227001 kcal/mol
H      0.51480079      0.20794433     -0.29873759       0.20451225
H      0.60888246      0.94096386     -0.23438912       0.14981963
H     -1.12368325     -1.14890819      0.53312670       0.21796270
3
1600000  xi=   0.89972767  Mean pot=  -106.22489131  Cent pot=  -108.21748224 kcal/mol
H      0.34390479     -0.29575783     -0.62572718       0.17325742
H      0.15590198     -0.86347197     -0.22243982       0.19016342
H     -0.49980677      1.15922979      0.84816700       0.15455371
3
1700000  xi=   0.90296107  Mean pot=  -104.91722745  Cent pot=  -108.84501648 kcal/mol
H     -0.48293817      0.81841110     -0.57780844       0.18279085
H     -0.46010327      0.12620094     -0.34625231       0.15682307
H      0.94304144     -0.94461204      0.92406075       0.17179481
3
1800000  xi=   0.89879023  Mean pot=  -106.46655302  Cent pot=  -108.89759432 kcal/mol
H     -0.97652131      0.62132854      0.01075116       0.23112003
H     -0.29529542      0.45717757      0.17850641       0.16332688
H      1.27181672     -1.07850611     -0.18925757       0.21584858
3
1900000  xi=   0.89858356  Mean pot=  -105.14917195  Cent pot=  -108.29056427 kcal/mol
H      0.23937688     -0.76994471      0.05868203       0.17695190
H      0.45781497     -0.49448389     -0.62248925       0.21617856
H     -0.69719185      1.26442860      0.56380722       0.21587527
3
2000000  xi=   0.90689545  Mean pot=  -104.80519802  Cent pot=  -108.74769661 kcal/mol
H      0.27461337     -0.51670129      0.02883250       0.22288867
H      0.01309042     -0.97749266     -0.50280155       0.14219789
H     -0.28770379      1.49419395      0.47396906       0.17330682
