96
100000  xi=   0.53672178  Mean pot=  -106.27792775  Cent pot=  -109.49232157 kcal/mol
H      0.36196757      1.80221985     -1.69207445     -6.91861533e+00    1.92224260e+00   -1.05608838e+01      -58.91141992    -11.77953036    -69.11037969  
H      0.43101735      1.79810984     -1.70794818     -1.51210735e+01   -5.13242168e+00    2.44543567e+00        0.53277886      0.16000008      0.37471912  
H      0.51727696      1.83636411     -1.75774684     -1.34517105e+01   -5.36516731e+00    1.14110224e+00      -27.70585948    -10.23021777    -11.88987657  
H      0.51301912      1.80591957     -1.65213591     -5.22560398e+00    3.17913976e+00   -1.24887757e+01       56.01736802     12.62103593     34.60384866  
H      0.43657725      1.73797329     -1.64035147      2.67192142e+00    6.01367723e+00    1.39878458e+01      -59.46858626     -6.79120180    -57.14849029  
H      0.33687733      1.93060609     -1.70291289     -6.15666472e+00    2.87283787e+00    1.42511032e+01     -170.20173827    -71.40988467   -174.10531282  
H      0.42116271      2.03817275     -1.73007741      4.00890413e+00    3.73123371e+00    6.53298029e+00        6.89784563      2.19092365      6.45167938  
H      0.41064446      2.01457257     -1.80618878      8.01583214e+00    4.83841570e+00   -4.98499870e+00      -64.50751663    -23.43044700    -33.98882839  
H      0.40663144      2.02599376     -1.80778754     -3.03000114e+00    9.79834493e+00   -2.01487827e+00      -15.94368025     -9.78659047     -6.81243360  
H      0.25611672      2.05914474     -1.74850987      1.01396071e+00   -3.34443935e+00    7.41473823e-01      -19.45735774    -10.86019219     -9.78302107  
H      0.25503918      1.97421911     -1.76578482      1.61488234e-01    1.89873286e+00    9.33361800e+00      -31.06637101    -12.61167933    -17.43776328  
H      0.20018418      2.17176571     -1.76927766     -5.05685633e+00    9.49646498e+00    5.10293619e+00       40.39905150     36.69959302     22.18964269  
H      0.15207414      2.15066625     -1.74098695      1.35833400e+01    3.38250879e+00   -1.51646801e+01       54.20621909     49.21862815     20.73773336  
H      0.09184396      2.18164672     -1.81298963      2.70781350e+00    3.76730008e-01   -1.98555971e+01       57.80921789     64.34128071     21.89886991  
H      0.11342208      2.16036444     -1.76261379     -1.77457757e+01    5.69375598e+00    1.66263858e+00       68.17635387     63.46150823     23.40654632  
H      0.21702368      2.08238659     -1.71231408      4.00146847e+00    5.50717742e+00    7.34505051e+00       72.61071505     53.62620582     23.94565446  
H      0.17719088      2.15526550     -1.72501179     -4.87542812e+00   -9.92189420e+00   -2.86336045e+00       39.39486785     36.37311428     18.97206401  
H      0.11256754      2.06919664     -1.66315831      7.46675309e-01   -5.20632487e-01   -1.78588529e+00        5.69446546      4.43914896      3.59135419  
H      0.14632397      1.93580294     -1.56161761     -3.27437584e+00   -1.30501238e+01    4.12039781e+00       -1.49082792     -0.89540282     -1.32219230  
H      0.12268391      1.91713381     -1.47483777     -4.22840446e+00   -3.46233971e+00    1.11203425e+01       42.64056363     27.33525862     50.61973628  
H      0.13777513      1.90970434     -1.55261876      1.53135422e+00   -7.00011385e+00   -3.07548087e+00       21.48492645     12.78753444     16.26518906  
H      0.10406340      1.86202931     -1.56582831     -4.31657055e+00    2.94367384e+00    1.30548051e+01      -48.09281021    -34.82056930    -45.21553514  
H      0.24859195      1.83616462     -1.50413673      4.15647559e-02   -3.63216086e+00   -1.30800543e+01       17.77052002      6.34878812     18.04721331  
H      0.32201523      1.86422634     -1.48504707      5.99534075e+00    1.59547237e+01    2.88460437e+00       25.89393242      7.25110968     22.12233539  
H      0.44687630      1.80185338     -1.58833498     -4.83659519e+00    1.86249342e+00   -1.37743506e+01        8.03647798      0.76394824      3.46336646  
H      0.46893941      1.79360857     -1.71423490      8.66245732e+00   -5.63205360e+00    1.10497039e+01      -16.93183686     -0.68609711     -8.17431895  
H      0.39937848      1.82675399     -1.64004704     -4.13557239e+00   -2.93213090e+00   -6.54504533e+00       11.22249485     -2.78076647      8.58438467  
H      0.37285079      1.86354330     -1.57410901     -6.36396414e+00   -1.44343645e+01    4.20213152e+00        4.51404819      0.57747776      4.81633535  
H      0.43978644      1.80337662     -1.67737164     -4.10273700e-01    5.80553061e+00    4.93747115e+00       35.88004514      1.69820380     21.50422535  
H      0.47786941      1.79392789     -1.59057185     -1.95175199e+00    1.20510926e+01   -6.95110388e+00       54.03505695     13.36938482     41.55412243  
H      0.37695071      1.79075165     -1.56025640      8.81392815e+00   -4.12398399e+00   -1.03785330e+01       41.87304473      9.98849214     36.49758141  
H      0.39678331      1.78814976     -1.66725335      5.65014958e-01   -3.47692670e+00   -1.49068730e+01       42.78147731     11.74801036     34.17938581  
H     -0.06151121      1.71754348     -2.18886697      1.32004605e+01   -1.82923851e+00   -1.99412337e-01       58.91142323     11.77958995     69.11031777  
H     -0.15872193      1.62102724     -2.12275474     -5.03469234e+00   -1.66956832e-01    2.83942245e+00       -0.53277944     -0.15993629     -0.37478923  
H     -0.09824320      1.60908640     -2.02189452     -6.92665605e-01    2.05512907e+00   -9.06423143e+00       27.70586079     10.23028705     11.88980340  
H     -0.20321489      1.64454831     -2.09457864      7.44666345e+00    3.36752234e-01   -1.54412970e+00      -56.01736535    -12.62095333    -34.60393436  
H     -0.04099739      1.68343469     -2.09929360     -4.46209609e+00    9.74593214e-01    3.05724205e+00       59.46859130      6.79127678     57.14841473  
H     -0.04764327      1.76927648     -2.09625242      4.96507367e+00    7.85968285e+00   -7.70739854e-01      170.20173865     71.40995224    174.10524314  
H     -0.11511781      1.86783937     -2.23167267      2.93987734e+00   -1.01888898e+01   -3.59628530e+00       -6.89784539     -2.19085291     -6.45175177  
H     -0.15299648      1.80984648     -2.10316940     -3.64604098e+00   -1.56081339e+01   -3.38180569e+00       64.50751606     23.43050890     33.98876611  
H     -0.16938668      1.67241922     -2.05390757     -1.01962778e+01   -1.19463103e+01   -8.15601038e+00       15.94368221      9.78666131      6.81236439  
H     -0.31534034      1.74018275     -2.03583323     -1.13078024e+00    1.62077799e+00   -8.20571051e+00       19.45735796     10.86026775      9.78294904  
H     -0.32175084      1.74006533     -2.08954040      1.41992940e+00   -2.98277811e+00   -4.46479519e+00       31.06637099     12.61175653     17.43768843  
H     -0.37400449      1.65015795     -2.08465812      2.12120930e+00   -2.36999241e+00    1.05411783e+01      -40.39905137    -36.69950673    -22.18972446  
H     -0.47699291      1.57948119     -1.98165044     -8.50983150e+00   -8.57437833e+00   -8.16581179e+00      -54.20621989    -49.21853262    -20.73782515  
H     -0.51240922      1.50911738     -2.04188894     -1.40159302e+01   -6.55440156e+00   -1.38244777e-01      -57.80922008    -64.34117960    -21.89897060  
H     -0.57451383      1.52000441     -1.99879891     -1.45537299e+00    2.27537622e+01   -8.80158922e-02      -68.17635698    -63.46140756    -23.40664492  
H     -0.52434687      1.53485241     -1.95680476      1.41998253e+00   -3.96492566e+00    1.31089018e+01      -72.61071669    -53.62611340    -23.94574598  
H     -0.39965494      1.62266694     -2.00281409     -1.91492761e+00   -7.36280697e+00    7.79364858e-02      -39.39486756    -36.37303634    -18.97214264  
H     -0.41822695      1.65541720     -1.99792112     -8.99471477e+00    2.30212759e+00    5.66334147e+00       -5.69446728     -4.43907004     -3.59143966  
H     -0.35799772      1.63289382     -2.00888261     -2.54101247e+00   -2.11993959e+00   -3.26894573e+00        1.49082535      0.89548805      1.32209835  
H     -0.39517414      1.58515507     -2.08960127     -1.05116331e+01   -1.95599907e+00   -1.10141419e+01      -42.64056612    -27.33515598    -50.61984811  
H     -0.42596607      1.57417436     -1.97940081     -2.69928532e+00    1.42174717e+00   -3.08631436e+00      -21.48493025    -12.78743046    -16.26530145  
H     -0.32811520      1.54911936     -1.97215041      4.18225902e+00    2.96276515e+00   -3.76900150e+00       48.09280866     34.82066698     45.21542697  
H     -0.28013419      1.64727071     -2.04109697      8.90797510e+00    9.81492580e+00   -2.93595427e+00      -17.77051859     -6.34868794    -18.04731894  
H     -0.26600068      1.69956475     -1.98741650      1.23940877e-01    4.60668340e+00   -2.52495571e+00      -25.89392859     -7.25099525    -22.12245762  
H     -0.24166390      1.73640367     -1.88506854      5.35937968e+00    6.40702183e+00    8.28514462e+00       -8.03647535     -0.76384625     -3.46347458  
H     -0.17942169      1.76733529     -2.02724836      5.38093940e+00    1.03236264e+00   -1.06783439e+01       16.93183981      0.68617355      8.17423806  
H     -0.19295475      1.97353233     -2.09314589      8.80050764e+00   -7.79671800e+00   -6.33024545e+00      -11.22248162      2.78085313     -8.58446946  
H     -0.13796252      1.79820487     -2.11913971      7.45693353e+00   -3.12950461e+00    2.64259537e+00       -4.51404043     -0.57738818     -4.81642435  
H     -0.24835325      1.77080776     -2.08979984     -2.73763658e-01    1.86376480e+01    1.20503818e+01      -35.88004297     -1.69812124    -21.50431306  
H     -0.19396800      1.62770195     -2.10722978      7.54894251e+00    7.24991083e+00    1.99134218e+00      -54.03505455    -13.36929968    -41.55421258  
H     -0.24023120      1.64352827     -2.09820808      6.58685974e+00    1.95563687e+00    7.34454976e+00      -41.87304255     -9.98841400    -36.49766467  
H     -0.23794132      1.61385163     -2.17435412      8.21284084e+00    4.41188913e+00    1.27478310e+01      -42.78147705    -11.74793971    -34.17946298  
H      0.03961150     -3.67350633      3.97184732      1.76598625e+01    6.32314527e+00    4.29637764e-02       -0.00000331     -0.00005959      0.00006192  
H      0.08529846     -3.68924529      3.91522484     -2.99041119e+00   -1.04981087e+01   -2.96786452e+00        0.00000058     -0.00006379      0.00007011  
H      0.07573341     -3.71667523      3.82936464      5.18153294e+00    2.00198312e+01    4.35494203e+00       -0.00000131     -0.00006928      0.00007317  
H     -0.11071277     -3.72721107      3.70660332      3.44167848e+00    9.48223138e+00    2.58975351e+00       -0.00000266     -0.00008260      0.00008570  
H     -0.03559044     -3.71596388      3.74065511      4.51791416e+00   -9.21480905e+00    9.81692857e+00       -0.00000503     -0.00007498      0.00007556  
H      0.03916087     -3.67441916      3.68818807      9.06715350e-01   -9.71076092e+00    6.06763687e+00       -0.00000037     -0.00006757      0.00006968  
H      0.09697071     -3.58110461      3.63540564     -2.59173585e+00    6.32318446e+00    8.08461199e+00       -0.00000024     -0.00007074      0.00007239  
H      0.10213706     -3.77612093      3.69779281      2.45353370e+00   -1.63736137e+00    3.54114875e-01        0.00000057     -0.00006190      0.00006227  
H      0.04720580     -3.76433305      3.64063325     -1.04453894e+01   -1.45980571e+00    2.77596529e+00       -0.00000197     -0.00007085      0.00006920  
H     -0.01135237     -3.77338620      3.55149164     -1.45624962e+01   -8.26503714e+00    3.18207820e+00       -0.00000022     -0.00007557      0.00007204  
H     -0.09248380     -3.79100251      3.49082183     -5.03117964e+00   -4.36903661e+00   -1.25400516e+00        0.00000002     -0.00007720      0.00007485  
H     -0.01756297     -3.69414444      3.49424906     -9.60600766e+00   -6.17656803e-01    9.41236120e+00       -0.00000013     -0.00008629      0.00008177  
H     -0.06751476     -3.67945709      3.52631655      6.69205842e+00   -6.17236565e+00    1.02238750e+01        0.00000080     -0.00009553      0.00009179  
H     -0.11653275     -3.63251572      3.49152477      1.62998165e+00   -8.83075427e-01    8.58419473e+00        0.00000219     -0.00010111      0.00010069  
H     -0.03265927     -3.66643586      3.54665472     -7.14465056e+00   -1.01652378e+01    1.08021267e+01        0.00000311     -0.00010068      0.00009860  
H      0.01721676     -3.68739639      3.68485665     -4.82442867e+00   -1.61142760e+00   -7.13184259e+00        0.00000164     -0.00009241      0.00009152  
H     -0.05233607     -3.58416998      3.77050800      7.09918419e+00    2.68126638e+00   -5.66090676e-01       -0.00000030     -0.00007794      0.00007863  
H     -0.00978364     -3.39906077      3.89928952      3.01614794e+00    7.80714716e-01    1.88766713e+00        0.00000181     -0.00007892      0.00008546  
H     -0.03717427     -3.44917821      3.84864277      2.19717900e-01    6.70630547e+00   -3.25856469e+00        0.00000257     -0.00008523      0.00009396  
H     -0.04759960     -3.43476197      3.79981468      6.97540423e+00    1.51768433e+01    5.94897370e+00        0.00000249     -0.00010264      0.00011184  
H     -0.02116778     -3.44299318      3.74652561      1.44192461e+01   -5.18826955e+00    3.97698088e-01        0.00000381     -0.00010398      0.00011239  
H     -0.10710723     -3.42096730      3.77588921      6.75723179e+00    5.62288077e+00   -5.02157789e+00        0.00000155     -0.00009768      0.00010816  
H     -0.08123981     -3.48133186      3.74715358      2.03190121e+00   -7.10006104e+00    5.08559044e+00       -0.00000143     -0.00010018      0.00010563  
H     -0.15813163     -3.35336995      3.73296920     -4.85340057e+00    1.00484576e+01    3.46683520e+00       -0.00000383     -0.00011442      0.00012224  
H     -0.14087542     -3.45182212      3.73983557      7.67905839e+00    5.33818151e+00   -6.90936603e+00       -0.00000263     -0.00010199      0.00010812  
H     -0.17249215     -3.59070467      3.75532230     -6.20218671e+00    6.58938603e+00    3.36862077e+00       -0.00000295     -0.00007643      0.00008089  
H     -0.12409735     -3.53561673      3.75542595     -9.99664289e+00   -9.53064848e+00   -3.06291026e-01       -0.00001323     -0.00008666      0.00008479  
H     -0.12295870     -3.50747987      3.72491740     -7.65590701e+00   -3.93127838e+00   -7.53735984e+00       -0.00000776     -0.00008958      0.00008900  
H     -0.03576604     -3.52973415      3.77001049      9.62962205e+00    8.20614789e+00    1.00523113e-02       -0.00000217     -0.00008257      0.00008771  
H     -0.05329620     -3.64737101      3.77826486      2.43534136e+01    1.53483093e+00   -2.70454444e+00       -0.00000240     -0.00008515      0.00009015  
H     -0.06086931     -3.62562960      3.88539837      4.11107863e+00   -2.53494257e+00   -1.67008395e+01       -0.00000218     -0.00007814      0.00008325  
H      0.02540266     -3.65101598      3.88758148      9.12683854e+00    9.46380566e+00    3.64059531e+00       -0.00000026     -0.00007065      0.00007717  
