3
100000  xi=   0.04587320  Mean pot=  -105.76321052  Cent pot=  -106.07683858 kcal/mol
H      0.25976472      4.74188852     -0.05115358       0.16733366
H      0.32395606      5.36446802     -0.25699088       0.24238327
H     -0.58372078    -10.10635654      0.30814447       0.19078789
3
200000  xi=   0.04613932  Mean pot=  -105.39614123  Cent pot=  -109.32081588 kcal/mol
H     -1.98755122     -3.04069053     -3.22359250       0.17064212
H     -2.63877840     -3.40544944     -3.06654353       0.22564792
H      4.62632963      6.44613997      6.29013603       0.27075791
3
300000  xi=   0.05245788  Mean pot=  -106.67797471  Cent pot=  -104.75471142 kcal/mol
H     -3.81679058      2.99984931     -0.95174904       0.26442218
H     -3.70883794      3.49528807     -0.55201114       0.20264671
H      7.52562852     -6.49513738      1.50376018       0.14546311
3
400000  xi=   0.05263278  Mean pot=  -108.08446170  Cent pot=  -109.21666313 kcal/mol
H      4.41826535     -0.36821648     -2.02874583       0.20414388
H      4.73326095     -1.00074013     -1.91141406       0.16713491
H     -9.15152630      1.36895661      3.94015989       0.17157288
3
500000  xi=   0.04989980  Mean pot=  -106.37962075  Cent pot=  -109.49322863 kcal/mol
H      0.92570707     -2.22846050     -4.71714104       0.19133657
H      1.35400584     -1.91735621     -4.19300839       0.16873958
H     -2.27971291      4.14581671      8.91014943       0.13926837
3
600000  xi=   0.04790571  Mean pot=  -107.16653407  Cent pot=  -108.38094627 kcal/mol
H     -3.61551146     -3.49304856      0.99808389       0.19337497
H     -3.18736574     -3.52801421      1.54119626       0.14848803
H      6.80287719      7.02106277     -2.53928015       0.17354479
3
700000  xi=   0.05037240  Mean pot=  -105.97429110  Cent pot=  -108.33423364 kcal/mol
H     -1.04057364      2.15414660      4.62772376       0.19598259
H     -1.14988440      1.48084386      4.51421391       0.17319828
H      2.19045804     -3.63499046     -9.14193767       0.16735765
3
800000  xi=   0.04457120  Mean pot=  -107.39143287  Cent pot=  -109.35904949 kcal/mol
H      2.32305300     -1.98222884      3.93726773       0.15472157
H      1.74862610     -2.34927525      4.27395235       0.19949745
H     -4.07167910      4.33150410     -8.21122009       0.25724484
3
900000  xi=   0.04531387  Mean pot=  -107.02349295  Cent pot=  -109.43055174 kcal/mol
H     -1.82272057     -3.68707938     -2.68838093       0.14496196
H     -1.97283525     -4.27848289     -2.28932927       0.22166871
H      3.79555582      7.96556227      4.97771020       0.26281527
3
1000000  xi=   0.05418419  Mean pot=  -106.07810524  Cent pot=  -109.41425789 kcal/mol
H      0.40645192      0.27791432      4.99186950       0.21272318
H      0.65589286     -0.43578736      4.98840045       0.21776730
H     -1.06234478      0.15787304     -9.98026995       0.15926396
3
1100000  xi=   0.04462650  Mean pot=  -107.25089633  Cent pot=  -109.49737312 kcal/mol
H      2.15898981      4.06716072      1.97164310       0.20698368
H      2.86268018      3.84398195      1.89136665       0.15818532
H     -5.02166999     -7.91114267     -3.86300975       0.15463734
3
1200000  xi=   0.04670026  Mean pot=  -106.75100613  Cent pot=  -109.41709486 kcal/mol
H     -1.14698461     -4.34818783     -2.49564665       0.17136194
H     -1.24991689     -4.49401198     -1.78998955       0.15806309
H      2.39690149      8.84219981      4.28563621       0.20558215
3
1300000  xi=   0.06328364  Mean pot=  -108.35024886  Cent pot=  -109.44608343 kcal/mol
H      1.56826317     -2.49213888      3.69836806       0.13450968
H      1.29908619     -3.12419982      4.00650382       0.19380581
H     -2.86734936      5.61633870     -7.70487188       0.20046456
3
1400000  xi=   0.03822944  Mean pot=  -105.25732712  Cent pot=  -108.21421772 kcal/mol
H     -1.11723382      3.94655470      3.50114447       0.17887680
H     -0.67449947      3.66466119      3.05459423       0.14234208
H      1.79173330     -7.61121590     -6.55573869       0.26183018
3
1500000  xi=   0.05785616  Mean pot=  -105.92748198  Cent pot=  -109.15414992 kcal/mol
H      5.08120113     -0.43884733     -0.32782622       0.23449802
H      4.89018146     -0.34814620      0.35382525       0.17004571
H     -9.97138259      0.78699352     -0.02599903       0.17997537
3
1600000  xi=   0.04790012  Mean pot=  -107.09216871  Cent pot=  -108.46755585 kcal/mol
H      4.24664090      2.97324045      0.55709772       0.21901468
H      4.29117996      2.37497489      0.20758836       0.16946717
H     -8.53782086     -5.34821535     -0.76468608       0.17415021
3
1700000  xi=   0.04868232  Mean pot=  -106.93098607  Cent pot=  -109.48885956 kcal/mol
H      1.80653476     -1.20536497      4.93736149       0.25044017
H      1.35895170     -0.94392735      4.41342066       0.24100650
H     -3.16548647      2.14929232     -9.35078215       0.16095051
3
1800000  xi=   0.05204856  Mean pot=  -106.44718843  Cent pot=  -109.34709972 kcal/mol
H     -4.44740871      0.83062705     -2.12836562       0.18124330
H     -4.28538833      0.42416101     -2.70384936       0.17313760
H      8.73279704     -1.25478806      4.83221498       0.19565193
3
1900000  xi=   0.05761410  Mean pot=  -106.32456830  Cent pot=  -109.33084549 kcal/mol
H     -0.22819220      4.20964315      2.75033347       0.13440126
H      0.43930077      3.95931993      3.01987797       0.15847044
H     -0.21110857     -8.16896308     -5.77021144       0.17121835
3
2000000  xi=   0.04788509  Mean pot=  -106.23391026  Cent pot=  -108.78726758 kcal/mol
H      0.64286149      2.20410104     -4.32000994       0.15855990
H      1.03824761      1.75369013     -4.82695895       0.17045602
H     -1.68110910     -3.95779117      9.14696889       0.14735302
