96
100000  xi=   0.95049786  Mean pot=  -102.99120620  Cent pot=  -105.23878881 kcal/mol
H     -0.68079614     -0.46053086     -0.44190991     -7.76112014e+00    1.08460773e+01    8.08375836e+00       -1.05317121      0.64406421     -1.11504779  
H     -0.77501000     -0.48791889     -0.41519054      1.06885041e+01   -8.75890073e+00    9.92644280e+00      -49.74934954    -27.17898401    -29.41300687  
H     -0.67727158     -0.52362528     -0.32177337      8.28877126e+00   -3.50934386e-01    7.80487722e-02        6.53387657      5.09639928      3.32081511  
H     -0.64234230     -0.66830241     -0.29231208     -1.22206306e+01   -5.59194149e+00   -1.70297292e+00       -9.29681651    -10.87677594     -5.19945298  
H     -0.67036759     -0.57457037     -0.33324020      6.14016144e+00   -3.77966167e+00    6.52454892e+00       21.44849120     18.91418750     11.54626054  
H     -0.86881656     -0.59322895     -0.27722160      1.48191153e+00   -2.09126573e+01    8.73888905e+00      -43.99369296    -17.90579470     -5.07917072  
H     -0.83908587     -0.52638300     -0.34141640      3.99980639e+00    2.57515389e+00   -6.92276662e+00      -21.30536695     -5.58336662     -3.90565518  
H     -0.86237222     -0.52576373     -0.30151809      8.08014154e-01    1.09655068e+01    4.12790702e+00      -37.77049714     -7.78198452     -3.61014543  
H     -0.79984610     -0.59021576     -0.42058860     -8.15670041e+00   -4.83366807e+00   -3.46652763e+00      -45.23741075    -16.11677135    -12.95910887  
H     -0.70451056     -0.67253440     -0.39766206     -1.19086683e+00   -6.60489727e+00   -3.61026406e+00      -15.95164693     -6.37249981     -6.36134985  
H     -0.72733621     -0.59422827     -0.48655916     -9.72187743e+00   -9.92635470e+00   -3.32090520e+00      -45.47600573    -15.49010225    -26.04019370  
H     -0.60095851     -0.53740305     -0.43433574     -1.46580759e+00    9.44581764e+00   -6.17963962e+00       22.33590718     12.00028160     16.47209544  
H     -0.64323479     -0.55913106     -0.39658933      6.23586029e+00    5.14315545e+00   -5.54767636e+00      -13.36225580     -7.51834444     -5.02046153  
H     -0.69083295     -0.49050389     -0.37224435     -3.62539952e+00   -2.72435797e+00    1.39623362e+01       23.32044012     15.63819277     10.28527420  
H     -0.65586274     -0.55063710     -0.40619649      6.80546271e+00    4.75854363e-01    9.37949165e+00       32.86580169     21.01560205      7.58114865  
H     -0.62570916     -0.50368327     -0.29769166     -2.53624285e-01   -3.57289569e+00    4.83127011e+00       50.24329701     42.92780445     -2.84809765  
H     -0.69899305     -0.63419383     -0.31597441      1.18305494e+01    6.57342373e+00   -7.13756129e-02      -27.64128643    -27.80418013      0.35902134  
H     -0.69462443     -0.55743045     -0.38313814      2.36508644e+00   -8.15603009e+00    8.12236897e+00      -14.40410182    -10.54575512     -0.08952931  
H     -0.68294597     -0.54378207     -0.24622442     -1.40163356e+01    9.60861411e+00   -8.98890942e+00       36.46926338     31.57027179     -1.52236603  
H     -0.68977006     -0.47206926     -0.33328038     -1.14695977e+00    7.72755698e+00   -8.27911133e-01       78.39595765     40.88808650      1.02111451  
H     -0.67300576     -0.59660439     -0.33775720     -1.53187967e+01    5.56919333e+00    5.34602193e+00       39.50256385     24.48958852      4.73004758  
H     -0.61510789     -0.50566555     -0.32494989     -4.84694899e+00   -4.91764312e+00    3.18999978e+00      261.86891785    125.95780124    -33.43907475  
H     -0.69749839     -0.60806761     -0.38626711     -8.56155677e+00    6.11636378e+00   -1.02065855e+01       35.48546562     21.36766631      5.20849231  
H     -0.69503728     -0.62882659     -0.37052443      6.83384764e+00    2.86630432e-01    1.25143879e+00       -0.38936040      2.12395956      4.44257742  
H     -0.75036616     -0.72440913     -0.39538627      7.99085578e+00    7.23148668e+00    4.92804903e+00      -54.45882026    -30.30356799     -6.41334732  
H     -0.62983174     -0.64377652     -0.41468990     -7.22222932e+00    4.84745449e-01   -1.09676410e+01      -36.61705495    -27.72773854     -4.30500631  
H     -0.66585558     -0.58105496     -0.42890028     -4.60649637e+00    1.98202448e+00    9.48047799e+00       -1.61076248      1.71211670      1.61247643  
H     -0.66373103     -0.55870791     -0.35863103     -7.25894017e+00    6.16212776e+00    7.36805967e+00       -9.00347317     -6.60303035     -3.30481538  
H     -0.75398207     -0.55101164     -0.42464646     -8.35562397e+00   -7.68915146e-01   -2.96444214e-01      -37.44410631    -17.80991491    -13.88916648  
H     -0.75318352     -0.60839980     -0.30036425     -1.67858450e+00   -6.87713334e+00   -2.30061518e+00      -38.47832089    -21.98712245    -15.65222791  
H     -0.84553327     -0.51348862     -0.33709125      7.25608884e+00    1.12097687e+01   -1.52651714e+01      -45.70689225    -19.35924084    -17.91745833  
H     -0.77657779     -0.38029594     -0.33888024     -2.36600536e+00   -1.34814209e+00   -4.38675186e+00       19.75082591     10.71056736      9.31276113  
H     -0.12511359     -0.15346002     -0.03318468     -1.48843158e+01    3.71046633e+00    1.46529962e+00        7.24493452      4.99499586      5.05365597  
H     -0.09960502     -0.10738792     -0.01657025      7.07963941e+00   -3.08422022e+00    2.93362092e+00       53.42534726     30.31485329     31.51843182  
H     -0.08984339     -0.12991170     -0.10033538      5.01619301e+00    8.90828806e+00    3.88691067e+00       -0.58639785      0.24329317      0.54002362  
H     -0.16657705     -0.12631820     -0.00860583     -1.23765756e+01    9.71172190e+00    6.69971636e+00       14.55423612     16.35463727      8.95024111  
H     -0.16117952     -0.13295206     -0.08237608     -1.31122807e+01   -6.64464860e+00    9.49928334e+00      -14.48686623    -12.26767372     -6.20577219  
H     -0.11940952     -0.25876829     -0.16204982      1.42739766e+00    2.89593049e+00   -4.19983215e-01       48.29322964     22.41920173      8.26443402  
H     -0.12589238     -0.26460480     -0.15533237      2.84741512e+00   -3.66100793e+00    1.11508668e+00       25.97067127     11.02691742      7.88070463  
H     -0.08937744     -0.32839114     -0.19982236     -2.68182315e+00    1.11633890e+00   -3.22358772e+00       40.99017336     11.54510848      6.18005095  
H     -0.05945445     -0.29521160     -0.18740335      7.97514344e+00    4.08352614e+00   -5.36799023e+00       48.77021724     20.42126335     16.02805368  
H     -0.06254855     -0.35007651     -0.10740409      2.15317540e+00    1.29272552e+01    2.15902464e-01       20.04495711     11.25117061      9.67684333  
H     -0.03598179     -0.32607173     -0.07850375      1.90951369e+00    1.59017993e+01    7.10577239e+00       49.22396609     19.92959228     29.36526736  
H     -0.04705583     -0.30383603     -0.04197746     -1.17878267e+01    1.00670523e+01   -1.00179765e+00      -16.79707018     -4.82567199    -11.32960205  
H     -0.04080051     -0.15571018     -0.11264557      2.32774785e+00   -1.56926850e+00    3.99542136e-01       18.73110248     13.46040830      9.64797083  
H     -0.11025361     -0.13133675     -0.14726275     -8.65485909e+00   -1.92958251e+00    7.96933661e+00      -16.79378504     -9.27679888     -5.36139556  
H     -0.05365519     -0.18879372     -0.31491410     -1.00634709e+01   -5.63023441e+00    4.33017203e+00      -26.18217547    -14.60229143     -1.65273749  
H     -0.10820099     -0.06199779     -0.36656719      2.32859202e-01   -1.57434120e+00   -7.20502783e+00      -42.71681217    -36.41507586      9.28828513  
H     -0.11502527     -0.06055717     -0.27812009      1.28533193e+00   -1.16298965e+01   -1.18342666e-01       33.45716938     32.61862288      2.98253853  
H     -0.07768337     -0.08042610     -0.26661012      5.89827149e+00   -9.70499080e-01   -4.00526801e+00       21.41682777     16.77486938      5.00605640  
H     -0.15692146     -0.08430740     -0.33528562      9.38136078e+00    7.03146859e-01    4.09541355e+00      -26.02937392    -22.97092152      8.23605009  
H     -0.08634697     -0.18046446     -0.35999736     -4.99807865e+00   -3.02256152e+00   -1.11235704e+01      -67.25172546    -29.78969274      7.03091076  
H     -0.04649847     -0.26072494     -0.33244666      4.54985169e+00    4.59727950e+00   -8.71406608e+00      -28.18945684    -12.75317101      2.89265019  
H     -0.11218711     -0.26929905     -0.39939580      1.79930606e+00    2.02170390e+00   -4.90941864e+00     -248.95107066   -113.63704294     43.07048179  
H     -0.06236512     -0.27291207     -0.37805978     -6.94531180e+00    1.90427986e+00    6.01853558e+00      -22.97500672    -10.41236697      2.77968414  
H     -0.00137291     -0.29874783     -0.37173878      2.04926136e+01    1.49756470e+00   -8.71563230e+00       11.11090448      6.10134411      1.54677434  
H      0.04049981     -0.26017075     -0.27543911     -3.12199511e-01   -1.51953655e+01    4.36529185e+00       55.63471945     29.95583315      5.43989554  
H      0.08144772     -0.10424581     -0.27471522     -7.35959414e+00    1.19712632e+00    3.33335028e+00       37.10691327     28.06265570      2.16718080  
H      0.01614591     -0.26846151     -0.22384959     -4.67922008e+00    1.57879088e+00    3.98129760e+00       11.35598011      5.42102298      3.59915411  
H     -0.05538723     -0.12210567     -0.10273833     -1.47432424e+00   -8.92777788e+00   -5.47666174e+00       16.92538595     12.14055586      7.14207464  
H     -0.04066521     -0.19225454     -0.14854613     -2.61640388e+00    1.51863469e+01    8.32070114e+00       42.44088480     21.06526873     16.26190500  
H     -0.07772122     -0.20612619     -0.02291365     -2.65983124e+00   -4.12299961e+00    8.77770074e+00       43.31307732     26.16355218     17.85180647  
H     -0.11612418     -0.18612948     -0.04742974      7.44500119e+00   -4.50442187e+00   -3.65579518e+00       50.52879082     22.86760674     20.10440278  
H     -0.15970930     -0.10408663     -0.06664485      2.56124241e+00    7.02192028e+00    3.06734553e+00      -11.29902755     -3.53036725     -4.49809000  
H      0.87628455      0.86858126      0.57325968     -5.92823079e+00    1.45916381e+01    1.56558120e+01       -6.19176331     -5.63906008     -3.93860818  
H      0.95034813      0.94453404      0.57537951     -7.75975444e+00    4.24408899e+00   -7.45724156e-01       -3.67599772     -3.13586928     -2.10542495  
H      0.92478770      0.85186746      0.64304163      3.28182778e+00   -9.67438401e+00   -9.24154253e+00       -5.94747872     -5.33969245     -3.86083873  
H      0.79810722      0.85293452      0.71079123     -1.47955456e+01   -1.55753620e+01    9.48597761e+00       -5.25741961     -5.47786133     -3.75078814  
H      0.76021979      0.76955638      0.69607487     -6.78273421e+00    1.01410911e+01   -4.87013555e+00       -6.96162497     -6.64651378     -5.34048835  
H      0.68093121      0.88267891      0.72403678     -1.98587612e+00   -5.69097105e+00    5.41266414e+00       -4.29953668     -4.51340703     -3.18526330  
H      0.60385281      0.92881465      0.71918161      1.21910037e+01   -3.05817259e+00   -2.76902621e+00       -4.66530432     -5.44355081     -3.97504945  
H      0.70264389      1.04438718      0.75862639     -2.66317626e+00   -1.04698643e-01   -1.31781358e+01       -3.21967622     -3.76312396     -2.56990552  
H      0.65470181      0.97476501      0.70298981     -7.93412380e+00   -4.38227489e+00    6.82711307e+00       -3.53280649     -4.30449200     -3.06894481  
H      0.75902196      0.88633205      0.69152375     -6.97308597e+00    2.84693078e+00    5.35761907e-01       -4.09331018     -4.87867080     -3.31549348  
H      0.66933039      0.90573524      0.69496818     -9.52662907e+00    5.82676602e-01   -3.46632073e+00       -3.74796036     -4.43949003     -3.32507365  
H      0.67615361      0.89114450      0.69452363     -2.31730531e+00    1.03022218e+01    9.39857709e+00       -5.53883700     -7.17460960     -5.14249339  
H      0.72957694      0.85734475      0.69470845      5.47592917e-01   -1.25780250e+00   -5.43251828e+00       -5.36884669     -5.94206386     -4.62750930  
H      0.79069567      0.85455401      0.64348114     -3.54428659e+00    1.51102863e+00    2.18048245e+00       -6.52665508     -6.36139389     -4.92387864  
H      0.77838958      0.72383106      0.65732152      8.50391527e+00   -6.40046030e+00    1.27238887e+00       -6.68362622     -6.41331061     -5.92841117  
H      0.80813162      0.73406846      0.68146167      2.37135030e+00   -1.07445090e+01   -1.31075378e+01       -7.52648483     -6.51272858     -6.44018748  
H      0.90361361      0.71722476      0.52310679     -1.48297044e+00    5.18324747e+00   -6.36857329e+00       -5.81588294     -4.81444275     -3.34155987  
H      0.75331867      0.70972550      0.54746580     -1.02410736e+01   -1.25137435e+01    4.94952385e+00       -7.01272595     -6.22911426     -4.91652709  
H      0.76771145      0.66294916      0.49373540     -3.39327695e+00   -6.68751701e+00   -7.76211138e+00      -10.43988946     -8.59935027     -6.71368406  
H      0.66445293      0.72985850      0.42571198     -9.58916486e+00   -1.63712567e-01   -1.10637919e+01      -11.14423219    -11.09839376     -8.05202527  
H      0.64660957      0.64171608      0.37796672      2.94614012e+00   -8.81987097e+00   -6.76349254e+00      -11.31310701    -11.73641751     -7.62269777  
H      0.70945166      0.62659087      0.42050886      7.58275660e+00    1.19789810e+01    3.80846421e+00      -12.91784719    -12.32075830     -9.63140704  
H      0.68962886      0.51974346      0.34324919     -6.82206087e-01    8.12316331e+00   -4.50698810e-01      -12.51045890    -10.95529934     -7.98817646  
H      0.79359548      0.46053563      0.35973517     -1.40728551e+01    4.97134268e+00    3.72905273e+00      -10.72154409     -8.22530367     -5.98935176  
H      0.85112404      0.61909819      0.29517047     -7.62553513e+00   -7.75449763e+00   -8.43660798e+00       -1.17589919      0.34773484      0.97345178  
H      0.90004064      0.52453955      0.36503954     -5.80008486e-01    5.72194394e+00    1.32616285e+01       -0.48985831     -0.33491715      2.13782552  
H      0.82464994      0.49482079      0.35526765     -1.89941860e+00   -1.47614627e+01    4.74714407e+00       -9.74521763     -7.13313967     -5.21163054  
H      0.92078268      0.54939753      0.40714814      6.06641953e-02    2.28052410e+00    6.47388614e+00       -7.92191277     -5.53752551     -3.83725926  
H      0.94431858      0.59539232      0.40542327     -1.62432932e+01    1.74630816e+01   -2.48070652e+00       -4.99677849     -3.25535382     -2.37273853  
H      0.95934191      0.81948117      0.47027461      1.22298687e+00   -5.16570274e+00   -2.00449410e-01       -4.83475643     -4.17642973     -2.19957855  
H      0.94167380      0.75808468      0.46766109     -5.30650274e+00    9.66673152e+00   -1.30421730e+01       -4.82189857     -3.50836590     -2.18694445  
H      0.78176976      0.83200497      0.51320655      2.30787438e+00    7.59882855e+00    1.72207058e+00       -8.45179835     -7.18020012     -4.81467113  
