3
100000  xi=   1.18028229  Mean pot=  -107.54233141  Cent pot=  -108.96003383 kcal/mol
H     -0.31875676     -1.90291686     -0.62961362       0.32145766
H      0.38446348      0.74060516      0.14248821       0.15480151
H     -0.06570673      1.16231170      0.48712542       0.17664547
3
200000  xi=   1.17762786  Mean pot=  -107.64836542  Cent pot=  -109.48953977 kcal/mol
H     -0.25189392      0.10257028      2.09250463       0.21608699
H      0.04441996      0.00720260     -0.69489802       0.12581962
H      0.20747396     -0.10977288     -1.39760660       0.14077090
3
300000  xi=   1.17281776  Mean pot=  -104.05341208  Cent pot=  -109.42303967 kcal/mol
H     -0.94422908     -0.08779661     -1.69239130       0.17790618
H      0.20134444     -0.20894212      0.90502202       0.15125467
H      0.74288464      0.29673873      0.78736928       0.15549620
3
400000  xi=   1.18656889  Mean pot=  -107.02298461  Cent pot=  -109.48756002 kcal/mol
H     -1.95611879     -0.27883803      0.65639104       0.18567691
H      0.86942942      0.25027753      0.01354731       0.18444452
H      1.08668937      0.02856050     -0.66993835       0.20070509
3
500000  xi=   1.18399685  Mean pot=  -107.05545543  Cent pot=  -109.31561230 kcal/mol
H     -0.31447789      1.81159499      0.02853436       0.16515069
H      0.43047456     -1.12425990     -0.11675063       0.16355823
H     -0.11599667     -0.68733509      0.08821628       0.18084935
3
600000  xi=   1.17107599  Mean pot=  -107.72614490  Cent pot=  -107.95362610 kcal/mol
H     -0.14452333     -1.40621268     -0.95978937       0.18573546
H     -0.00820418      0.99700135      0.64246765       0.24669638
H      0.15272751      0.40921133      0.31732172       0.17569232
3
700000  xi=   1.17699341  Mean pot=  -104.42324337  Cent pot=  -107.98987015 kcal/mol
H     -1.59343786      0.55559989      0.80044200       0.23560540
H      0.65822340     -0.35111078     -0.70546908       0.17095319
H      0.93521446     -0.20448911     -0.09497293       0.17940144
3
800000  xi=   1.17951476  Mean pot=  -106.87361213  Cent pot=  -109.39806285 kcal/mol
H      1.61997223      0.40102318      0.86038222       0.24483563
H     -0.78134162     -0.54165229     -0.56750466       0.17052423
H     -0.83863062      0.14062911     -0.29287757       0.20523397
3
900000  xi=   1.18493180  Mean pot=  -107.70617480  Cent pot=  -109.10428644 kcal/mol
H     -0.30878542     -1.67739909      0.98235093       0.17750977
H     -0.19264664      0.81463809     -0.56744968       0.12576146
H      0.50143206      0.86276099     -0.41490125       0.16448108
3
1000000  xi=   1.17469853  Mean pot=  -107.47667347  Cent pot=  -109.52316200 kcal/mol
H      0.84363876      1.63839293     -0.96689260       0.23301966
H     -0.28022683     -0.47485966      0.48130328       0.22555302
H     -0.56341193     -1.16353327      0.48558933       0.15459579
3
1100000  xi=   1.18394013  Mean pot=  -107.19655827  Cent pot=  -108.35202026 kcal/mol
H      0.77796668      1.71909951      0.84004516       0.15373148
H     -0.11311097     -0.65612176     -0.46508610       0.15031453
H     -0.66485571     -1.06297775     -0.37495907       0.19433159
3
1200000  xi=   1.18137027  Mean pot=  -107.91026962  Cent pot=  -106.33531877 kcal/mol
H     -1.20299848     -1.36602942     -0.89165086       0.23860264
H      0.62673260      0.37481763      0.32823702       0.24290319
H      0.57626588      0.99121179      0.56341384       0.20012947
3
1300000  xi=   1.17950670  Mean pot=  -106.15131267  Cent pot=  -109.41944044 kcal/mol
H      1.55941538     -0.79870947      0.85029764       0.17036729
H     -0.62564791      0.26958881     -0.73022316       0.16606945
H     -0.93376747      0.52912066     -0.12007448       0.22737237
3
1400000  xi=   1.17310787  Mean pot=  -106.67409538  Cent pot=  -109.12500595 kcal/mol
H     -0.41850181      0.68377758     -1.78655031       0.14471506
H     -0.11429773     -0.19910677      0.84671880       0.16325213
H      0.53279954     -0.48467082      0.93983151       0.19189831
3
1500000  xi=   1.18297884  Mean pot=  -106.17759160  Cent pot=  -109.46240549 kcal/mol
H      0.09610859     -1.01771122     -1.67754182       0.19172178
H     -0.34274822      0.30210912      0.91542214       0.17305680
H      0.24663963      0.71560211      0.76211968       0.18495616
3
1600000  xi=   1.18851749  Mean pot=  -107.53932285  Cent pot=  -109.16347167 kcal/mol
H     -0.78975154      0.60153621     -1.66734378       0.18616777
H      0.74444833     -0.27065091      0.76406432       0.23662526
H      0.04530321     -0.33088530      0.90327946       0.18128409
3
1700000  xi=   1.18061989  Mean pot=  -106.55166349  Cent pot=  -109.37043941 kcal/mol
H      0.54820341     -0.43816060      1.77274443       0.17299185
H     -0.50034935     -0.06114096     -0.94287076       0.11867883
H     -0.04785406      0.49930155     -0.82987366       0.22968480
3
1800000  xi=   1.18407287  Mean pot=  -105.56641268  Cent pot=  -109.37327587 kcal/mol
H     -1.12879034     -1.19922486     -0.92623108       0.19809772
H      0.48802043      0.95043840      0.39421597       0.18565211
H      0.64076991      0.24878646      0.53201510       0.29109223
3
1900000  xi=   1.18416496  Mean pot=  -106.64756531  Cent pot=  -107.89037073 kcal/mol
H     -0.64365478     -0.90295003     -1.46362436       0.20617341
H      0.64858763      0.50416477      0.82055978       0.14483699
H     -0.00493285      0.39878525      0.64306459       0.15480929
3
2000000  xi=   1.17715055  Mean pot=  -105.63303052  Cent pot=  -108.79144408 kcal/mol
H     -1.60913430     -1.15378274      0.31423678       0.18875719
H      0.65065773      0.47870586     -0.50425952       0.19078167
H      0.95847657      0.67507688      0.19002274       0.20076873
