3
100000  xi=   0.43016260  Mean pot=  -104.52213124  Cent pot=  -109.19793951 kcal/mol
H      0.79449879      2.72592738     -1.77811536       0.16986778
H      0.09889111      2.59637854     -1.47607886       0.21703843
H     -0.89338990     -5.32230592      3.25419422       0.19078884
3
200000  xi=   0.43463178  Mean pot=  -104.37059188  Cent pot=  -109.30304344 kcal/mol
H      2.35968473      0.93115876      1.32705134       0.20132156
H      2.98190344      1.31880065      1.11254398       0.17208408
H     -5.34158817     -2.24995941     -2.43959532       0.17095644
3
300000  xi=   0.42708767  Mean pot=  -106.47589617  Cent pot=  -109.45649773 kcal/mol
H     -2.43526513      0.48513320      1.38446147       0.13672184
H     -3.14280580      0.72858198      1.45661055       0.17185983
H      5.57807093     -1.21371518     -2.84107203       0.27899473
3
400000  xi=   0.42201040  Mean pot=  -107.00679305  Cent pot=  -109.40837518 kcal/mol
H     -1.79003173      1.91749682     -1.75344085       0.18453008
H     -2.36628417      1.52036163     -1.55599432       0.19771353
H      4.15631590     -3.43785844      3.30943517       0.17715858
3
500000  xi=   0.43619037  Mean pot=  -104.66587678  Cent pot=  -109.09676413 kcal/mol
H     -1.08771164     -2.46584662      1.66547502       0.19962316
H     -1.70304475     -1.99968696      1.61196307       0.19274619
H      2.79075639      4.46553358     -3.27743809       0.24423633
3
600000  xi=   0.42860063  Mean pot=  -107.60104801  Cent pot=  -108.12129907 kcal/mol
H      0.66696404     -0.02598028      2.81552386       0.22497146
H      0.73067893      0.41689021      3.33731782       0.17675394
H     -1.39764296     -0.39090993     -6.15284168       0.13761618
3
700000  xi=   0.43727380  Mean pot=  -106.73164463  Cent pot=  -109.49636241 kcal/mol
H     -2.27270003     -0.34291179     -1.58390544       0.21322063
H     -2.90173420     -0.65367849     -1.81836725       0.17641031
H      5.17443423      0.99659029      3.40227269       0.16492430
3
800000  xi=   0.44216406  Mean pot=  -106.81576746  Cent pot=  -109.38369523 kcal/mol
H     -3.08660242     -0.78340412     -0.66636117       0.12553994
H     -2.90301292     -0.10888988     -0.47292204       0.13774922
H      5.98961533      0.89229400      1.13928321       0.23423055
3
900000  xi=   0.42819604  Mean pot=  -107.59804836  Cent pot=  -109.38139077 kcal/mol
H      0.59446593     -0.03956771      3.13093860       0.14253537
H      1.04561259      0.47948752      2.90091945       0.14699951
H     -1.64007852     -0.43991982     -6.03185805       0.21332281
3
1000000  xi=   0.42874686  Mean pot=  -106.96617241  Cent pot=  -109.36229123 kcal/mol
H      2.77445868     -0.66837644     -2.08756636       0.15909298
H      2.34920883     -0.34393871     -1.54755228       0.21731568
H     -5.12366751      1.01231515      3.63511864       0.23828494
3
1100000  xi=   0.43591575  Mean pot=  -106.76823461  Cent pot=  -109.48525870 kcal/mol
H      2.11125456     -1.07475087      1.94228126       0.15866930
H      2.31077335     -1.60716439      1.47467926       0.21770734
H     -4.42202791      2.68191526     -3.41696053       0.22021976
3
1200000  xi=   0.42744960  Mean pot=  -106.30954247  Cent pot=  -108.93603860 kcal/mol
H      0.74266759      3.08943847      1.10678540       0.19332586
H      0.09373246      2.91824919      0.70936327       0.26993135
H     -0.83640005     -6.00768767     -1.81614867       0.15682617
3
1300000  xi=   0.42983274  Mean pot=  -106.39611433  Cent pot=  -108.81898792 kcal/mol
H      0.61424137      0.57424617     -3.23534985       0.12740305
H     -0.09736441      0.67876237     -2.92344037       0.19809973
H     -0.51687696     -1.25300854      6.15879022       0.17148381
3
1400000  xi=   0.43125261  Mean pot=  -107.66801643  Cent pot=  -108.54019362 kcal/mol
H      0.07333363     -1.23534369      2.85942916       0.16770354
H      0.21975000     -0.59200910      3.08076283       0.21801691
H     -0.29308363      1.82735279     -5.94019198       0.19747388
3
1500000  xi=   0.41945526  Mean pot=  -107.88234470  Cent pot=  -109.49178108 kcal/mol
H      0.48526717      3.16026444     -0.71411959       0.14358066
H     -0.12345041      3.11684241     -0.29942754       0.22019809
H     -0.36181675     -6.27710685      1.01354713       0.15693567
3
1600000  xi=   0.43069326  Mean pot=  -107.35082828  Cent pot=  -109.49759834 kcal/mol
H      1.49446521     -1.40135201      2.45668520       0.21823189
H      1.91505715     -0.81209641      2.29249621       0.20534367
H     -3.40952237      2.21344842     -4.74918140       0.25200244
3
1700000  xi=   0.42753298  Mean pot=  -106.76259347  Cent pot=  -109.12894588 kcal/mol
H     -1.37688825      3.09157196     -0.62682617       0.19537796
H     -1.55097520      2.40634915     -0.53663956       0.28072648
H      2.92786345     -5.49792111      1.16346573       0.22251423
3
1800000  xi=   0.43086741  Mean pot=  -105.45718915  Cent pot=  -109.37115349 kcal/mol
H      1.25270588     -0.44593905      2.55278917       0.21719660
H      1.92199345     -0.53640878      2.81493658       0.19935289
H     -3.17469933      0.98234783     -5.36772575       0.26029341
3
1900000  xi=   0.42785489  Mean pot=  -105.45148809  Cent pot=  -109.43869680 kcal/mol
H      1.91122501      2.38033432     -0.89258489       0.17705502
H      2.20179451      2.21166209     -0.24468260       0.24375162
H     -4.11301952     -4.59199641      1.13726749       0.26098057
3
2000000  xi=   0.41768323  Mean pot=  -105.70657054  Cent pot=  -109.07438026 kcal/mol
H     -2.32623256      1.72776896      1.06892783       0.19966067
H     -1.99868107      2.40681320      1.24734664       0.21196946
H      4.32491363     -4.13458216     -2.31627447       0.18548878
