96
100000  xi=   0.16958393  Mean pot=  -104.73074276  Cent pot=  -108.82364194 kcal/mol
H     -1.22600817      2.96316566      2.75492878      7.47617177e+00   -4.52994104e+00   -4.10875187e+00       55.71747016    -35.63522403     43.24401702  
H     -1.24225621      2.92734180      2.76579798     -1.37323961e+01    2.03209338e+00   -1.21063483e+00       49.78630197    -29.75554162     36.64515246  
H     -1.11909065      2.95160526      2.80401925     -8.67089404e+00    4.90674190e+00    5.42733128e+00       70.00381661    -33.94519072     46.89198656  
H     -1.16117005      2.98473698      2.81648184     -1.18377664e+00   -2.40633390e+00   -1.39879598e+01       71.95247559    -27.84052448     45.81737258  
H     -1.16600998      2.94258810      2.81333218      7.83273880e-01    4.40514463e+00    1.36162349e+01       54.58947682    -28.81825276     38.72176602  
H     -1.17582306      3.10084203      2.84239030      4.40834199e+00   -1.38341726e+00    7.66920164e+00       74.15882166    -30.75551702     58.21099347  
H     -1.13228923      3.27461515      2.72481990      9.95199244e+00   -4.34102177e+00   -2.33648071e+00       80.53860389    -16.47127815     50.54943161  
H     -1.16883024      3.27119451      2.65092490     -1.11289551e+00   -7.89729464e+00   -7.93547602e+00       59.40422693     -6.88534669     23.33117077  
H     -1.24828651      3.22332277      2.65392135     -1.99103146e+00    4.43316333e+00   -5.37291174e+00      -32.84887389      3.08548195    -13.54788411  
H     -1.36517622      3.26270141      2.71804788      2.43304403e+00    1.36779515e+00   -9.27444693e+00       27.33739355     -3.19538131     12.23925046  
H     -1.41283601      3.14477771      2.70275664      1.22044357e-01   -8.33237343e-01    6.96562006e+00        9.25938770     -3.47587519      5.32955706  
H     -1.49943712      3.15823131      2.70980033      1.11952074e+00    3.24356266e+00    1.39934247e+01       -1.33132200      0.75220006     -0.88781985  
H     -1.57411232      3.09768503      2.67051399      5.67693999e+00    1.20446341e+00   -1.28457162e+01      -56.55152758     34.81990759    -16.33838878  
H     -1.60304118      2.91549543      2.58646471      5.35873903e-01   -3.31695206e-01   -1.68735790e+01       54.36123181    -60.97165710     11.44554098  
H     -1.56487007      2.87812266      2.62631062     -9.10674328e+00    1.16677161e+01    7.92485223e-01       71.52792010    -73.54203803     11.21093249  
H     -1.52674166      2.91595002      2.67006963     -2.59188838e+00   -7.07870448e-02    1.00486468e+01       53.70289105    -50.21596641      9.03617508  
H     -1.48945628      3.08737066      2.66336334     -2.62069591e+00   -5.63053811e+00   -3.85466670e+00       14.36563912     -9.47125610      3.49906602  
H     -1.55644311      3.01504183      2.76939403     -1.27033615e+01    3.16130952e+00    1.37995127e+01       35.60840974    -31.21024405     18.43949443  
H     -1.43040696      3.07177984      2.71957094     -7.70491832e+00   -9.33333527e+00   -2.32921251e+00       24.53288870     -7.84288595      3.59593629  
H     -1.47802019      3.01917077      2.81012001     -1.14183687e+01    1.49440364e+00    4.49243692e+00       35.65511702    -13.94433344     14.42043401  
H     -1.52335166      3.00646313      2.84999946     -8.57173925e-01    7.45141196e+00   -1.70194828e+01       11.05076860     -4.96465256      5.84532255  
H     -1.55842512      3.01997180      2.82679422     -2.76308964e+00    7.65172370e+00    9.42527752e+00     -164.56176698     60.68448821    -97.36197306  
H     -1.41662617      3.12949700      2.82480100      1.10032152e+00    5.08290679e+00   -9.84287608e+00      -91.61545047      5.30018141    -46.19582234  
H     -1.36635510      3.03359674      2.84081071     -8.64285464e-01   -2.03957660e-01    5.21207808e+00      -21.47454174     11.06807481     -9.11810615  
H     -1.31786888      2.95358391      2.73344881      1.14123870e+00    3.41921822e+00   -2.53217733e+00      -31.97698130     26.02619748     -2.24843137  
H     -1.27272815      2.89424482      2.70270165      9.52913559e+00   -1.26488880e-01    1.27995894e+01       37.88495795    -40.28488231     16.94427628  
H     -1.37869306      3.03991592      2.71948232     -6.45177148e+00   -4.50555122e+00   -1.50291976e+00       -7.47291434      9.46727511     -4.82536612  
H     -1.33832542      2.89720985      2.80313237      5.33673905e+00   -8.05676068e-01    1.00532817e-01       43.72080295    -62.88104928     36.92395743  
H     -1.37350262      2.91349987      2.74475079     -4.73951095e+00    6.58396443e+00    1.42635782e+01       20.77939456    -26.06874907     16.60952836  
H     -1.28353654      2.81050608      2.75675811      2.95646210e+00    7.20251678e+00   -3.74742216e+00       43.01848433    -49.41143675     25.04296091  
H     -1.33577876      2.86415048      2.76238139     -2.89896918e+00    9.41045396e+00   -6.04358594e-01       35.70155443    -32.05890720     17.48690961  
H     -1.37002017      2.88094456      2.75548045      2.12481928e+00   -1.92743715e+00    3.64240006e+00       23.87008581    -22.20444736     22.25772851  
H     -1.85540860      3.36571132      2.26643205     -1.65040018e+00    5.09059727e+00   -5.42860260e+00      -55.71747169     35.63522702    -43.24401471  
H     -1.86731258      3.30091627      2.30572595     -6.88026501e+00   -6.86464028e+00    7.72509238e+00      -49.78630348     29.75554452    -36.64515018  
H     -1.84372297      3.30298300      2.31862503     -5.93183643e+00   -7.75113299e+00   -1.21261010e+01      -70.00381804     33.94519352    -46.89198433  
H     -1.91091014      3.27483343      2.33906783      2.94973619e+00    6.39080170e+00    1.18139316e+00      -71.95247694     27.84052722    -45.81737037  
H     -1.82024937      3.28796669      2.34926282     -3.03245493e+00    3.04819505e+00    4.65704487e+00      -54.58947821     28.81825554    -38.72176379  
H     -1.91682004      3.40815201      2.26074448     -6.05569000e+00    1.25838528e+01    7.03437128e+00      -74.15882297     30.75551960    -58.21099141  
H     -1.94352532      3.44052436      2.21565386     -3.46048359e+00   -1.64989092e+00    6.50280617e+00      -80.53860521     16.47128072    -50.54942957  
H     -1.95537319      3.36236010      2.34200805      5.02466565e+00   -2.40655999e+00    7.92622435e-01      -59.40422818      6.88534916    -23.33116885  
H     -1.89635185      3.28419527      2.38663928     -1.16905067e+01   -6.11252719e+00   -3.57107589e+00       32.84887263     -3.08547947     13.54788608  
H     -2.07588603      3.34577405      2.39985535     -3.00896225e+00   -2.62652209e+00    3.03789229e+00      -27.33739472      3.19538359    -12.23924863  
H     -2.03575629      3.37861539      2.34421367      1.00389016e+00    2.17355361e-01   -8.73256426e-01       -9.25938888      3.47587751     -5.32955518  
H     -2.05623846      3.47282502      2.33848515     -4.51289027e+00    4.34923365e+00    2.88039420e+00        1.33132081     -0.75219777      0.88782171  
H     -2.13266217      3.44159535      2.50914248     -1.06107781e+00   -5.93027954e+00   -9.26116835e+00       56.55152636    -34.81990528     16.33839067  
H     -2.19940430      3.58437740      2.46090284     -1.22994901e+01   -5.37756679e+00   -1.89276687e+00      -54.36123309     60.97165950    -11.44553900  
H     -2.27806042      3.61139537      2.51452871     -1.05534977e+01    1.72446067e+01    2.00925617e+00      -71.52792136     73.54204038    -11.21093056  
H     -2.16246443      3.51039536      2.56310143      7.55806912e+00    2.08155490e+00    1.16291052e+01      -53.70289236     50.21596884     -9.03617310  
H     -2.11485820      3.49969776      2.51103307     -4.62770729e+00   -1.11882951e+01    2.29894214e+00      -14.36564049      9.47125870     -3.49906394  
H     -2.13107621      3.51869925      2.47182549      3.99810544e+00   -9.13212103e-01   -8.69895390e+00      -35.60841129     31.21024686    -18.43949215  
H     -2.16314337      3.30602739      2.61216930      1.43376980e+00   -5.36848836e+00    4.40865328e+00      -24.53289021      7.84288876     -3.59593399  
H     -2.17630922      3.29226414      2.52770250     -3.78064391e+00   -6.44783532e+00   -3.15989357e+00      -35.65511854     13.94433621    -14.42043172  
H     -2.14672376      3.28651846      2.52026583     -7.65859022e-01   -1.25609011e+01    1.20817802e+01      -11.05077007      4.96465524     -5.84532031  
H     -2.04747329      3.20031526      2.53745182      2.17040531e+00   -1.27972361e+00    1.08999262e+00      164.56176544    -60.68448537     97.36197543  
H     -1.99678032      3.16306035      2.53226630      7.39241575e+00    1.56701355e+00   -4.95040120e+00       91.61544900     -5.30017864     46.19582464  
H     -1.95950294      3.33930775      2.58895965      6.52744850e+00    2.12330780e+01   -3.62373569e+00       21.47454024    -11.06807193      9.11810858  
H     -1.85875980      3.39381726      2.69541655     -1.07730752e+00    5.31538570e+00   -1.73138795e+00       31.97697984    -26.02619461      2.24843378  
H     -1.81963920      3.47580143      2.45809241      4.05922766e+00   -4.00443618e+00   -1.12033435e+01      -37.88495939     40.28488523    -16.94427391  
H     -1.79672626      3.56951320      2.44955229      1.06580669e+01   -5.75807983e+00   -1.01430847e+01        7.47291295     -9.46727233      4.82536837  
H     -1.80865511      3.57365728      2.40592026     -4.70017132e+00   -1.62906576e+01    7.96691533e+00      -43.72080438     62.88105211    -36.92395510  
H     -1.81693213      3.46980352      2.39030571      3.59898839e+00    1.83264589e+01    3.95353485e+00      -20.77939605     26.06875194    -16.60952604  
H     -1.81440534      3.42026699      2.44771594      2.18211718e+00    1.25638377e+01    1.26292559e-02      -43.01848578     49.41143960    -25.04295860  
H     -1.90938669      3.37923292      2.48142363      1.78447081e+01   -1.11101766e+01   -1.20395853e+00      -35.70155592     32.05891011    -17.48690728  
H     -1.85297836      3.33020227      2.30514478      6.19419379e+00    3.32749147e+00   -4.57266224e+00      -23.87008734     22.20445029    -22.25772619  
H      3.42148559     -6.48259384     -4.93040623      1.81158540e+01    5.85323608e+00   -1.18418035e+00        0.00000153     -0.00000299     -0.00000232  
H      3.46715226     -6.49838388     -4.98705706     -2.53261805e+00   -1.09634212e+01   -4.19271245e+00        0.00000151     -0.00000290     -0.00000228  
H      3.45759713     -6.52580986     -5.07287813      5.63847631e+00    1.95539149e+01    3.12688362e+00        0.00000143     -0.00000280     -0.00000223  
H      3.27115486     -6.53630118     -5.19567712      3.89822692e+00    9.01258397e+00    1.36481444e+00        0.00000136     -0.00000274     -0.00000221  
H      3.34626033     -6.52513446     -5.16160085      4.97592275e+00   -9.67782718e+00    8.59010804e+00        0.00000139     -0.00000277     -0.00000223  
H      3.42103560     -6.48350353     -5.21406936      1.36268307e+00   -1.01810150e+01    4.84074709e+00        0.00000131     -0.00000258     -0.00000207  
H      3.47882265     -6.39025331     -5.26687323     -2.13381591e+00    5.85828003e+00    6.85973012e+00        0.00000132     -0.00000257     -0.00000205  
H      3.48400338     -6.58524815     -5.20444946      2.91026751e+00   -2.10394368e+00   -8.74052328e-01        0.00000125     -0.00000246     -0.00000192  
H      3.42907162     -6.57343064     -5.26164873     -9.98863697e+00   -1.92905085e+00    1.55132728e+00        0.00000126     -0.00000248     -0.00000197  
H      3.37050012     -6.58255490     -5.35075995     -1.41045935e+01   -8.72818243e+00    1.95484930e+00        0.00000117     -0.00000228     -0.00000183  
H      3.28939109     -6.60008416     -5.41143875     -4.57520096e+00   -4.83953144e+00   -2.48056255e+00        0.00000118     -0.00000232     -0.00000187  
H      3.36428799     -6.50330132     -5.40802508     -9.14791328e+00   -1.08189241e+00    8.18722010e+00        0.00000120     -0.00000229     -0.00000186  
H      3.31435385     -6.48857680     -5.37592434      7.14859083e+00   -6.63955993e+00    8.99569594e+00        0.00000122     -0.00000231     -0.00000189  
H      3.26533032     -6.44162225     -5.41075657      2.08696171e+00   -1.35167592e+00    7.35973805e+00        0.00000128     -0.00000241     -0.00000199  
H      3.34919510     -6.47560193     -5.35559173     -6.68690633e+00   -1.06285840e+01    9.57452550e+00        0.00000126     -0.00000235     -0.00000193  
H      3.39909084     -6.49647688     -5.21740732     -4.36839711e+00   -2.08217796e+00   -8.35787927e+00        0.00000131     -0.00000243     -0.00000198  
H      3.32951340     -6.39333212     -5.13176298      7.55731379e+00    2.21765544e+00   -1.79158759e+00        0.00000137     -0.00000260     -0.00000208  
H      3.37208667     -6.20817041     -5.00295437      3.47246666e+00    3.12593312e-01    6.59812978e-01        0.00000154     -0.00000282     -0.00000228  
H      3.34468596     -6.25829179     -5.05364055      6.76889105e-01    6.23833483e+00   -4.48285441e+00        0.00000151     -0.00000280     -0.00000229  
H      3.33425637     -6.24392042     -5.10243065      7.43293076e+00    1.47130078e+01    4.72123137e+00        0.00000151     -0.00000277     -0.00000230  
H      3.36070514     -6.25207230     -5.15574336      1.48753457e+01   -5.65919816e+00   -8.27765948e-01        0.00000148     -0.00000268     -0.00000224  
H      3.27474182     -6.23013280     -5.12637819      7.21539382e+00    5.15965893e+00   -6.24736420e+00        0.00000154     -0.00000284     -0.00000237  
H      3.30063193     -6.29043257     -5.15509240      2.48805648e+00   -7.56905538e+00    3.85811055e+00        0.00000147     -0.00000277     -0.00000230  
H      3.22372605     -6.16249168     -5.16931358     -4.39599477e+00    9.58146319e+00    2.24235786e+00        0.00000150     -0.00000288     -0.00000244  
H      3.24098296     -6.26097371     -5.16240708      8.13641846e+00    4.87373648e+00   -8.13726970e+00        0.00000146     -0.00000287     -0.00000241  
H      3.20937907     -6.39978633     -5.14694978     -5.74595730e+00    6.11883100e+00    2.14328179e+00        0.00000144     -0.00000292     -0.00000237  
H      3.25775143     -6.34478654     -5.14683653     -9.53849863e+00   -9.99353477e+00   -1.53256082e+00        0.00000140     -0.00000279     -0.00000224  
H      3.25891440     -6.31657464     -5.17733108     -7.19987723e+00   -4.40090193e+00   -8.76464431e+00        0.00000143     -0.00000283     -0.00000233  
H      3.34608900     -6.33886638     -5.13227045      1.00872212e+01    7.74004403e+00   -1.21463603e+00        0.00000148     -0.00000286     -0.00000233  
H      3.32856425     -6.45651645     -5.12397560      2.48105443e+01    1.06967088e+00   -3.93255263e+00        0.00000145     -0.00000285     -0.00000232  
H      3.32100003     -6.43471618     -5.01687670      4.56747574e+00   -3.00502543e+00   -1.79260231e+01        0.00000150     -0.00000291     -0.00000234  
H      3.40725201     -6.46018731     -5.01467714      9.58491996e+00    9.00094803e+00    2.41405252e+00        0.00000153     -0.00000293     -0.00000232  
