96
100000  xi=   0.66056165  Mean pot=  -107.83965716  Cent pot=  -109.48042483 kcal/mol
H     -0.17423687      0.86431476     -1.50621003      4.21423423e+00    5.71657246e+00   -4.84904806e+00       25.97705114     57.02447945    -68.13261441  
H     -0.24598530      0.79138201     -1.43542608     -1.29660410e+01    3.46268165e+00   -4.65332848e+00      -13.01274476    -19.53674471     24.95639058  
H     -0.19677789      0.74533677     -1.39866008     -8.43916334e-01   -6.92278524e+00    2.44648542e+00      -31.06371666    -50.72925386     53.31343267  
H     -0.23914125      0.71327728     -1.48615937     -2.72435440e+00    2.37068066e+00    2.12443260e+00      -19.11288520    -37.65834830     23.01471434  
H     -0.19162230      0.75171766     -1.43727194     -7.95295897e+00    6.64106443e+00    2.49552565e+00      -12.02327335    -20.33168570     18.36329227  
H     -0.28562630      0.90175332     -1.50575098     -4.67471506e+00    5.36606892e+00    1.29660430e+01       -8.00068443    -10.30319015      8.13712550  
H     -0.29885968      0.94727724     -1.55255728      4.81980860e-01    5.92645147e-01    2.90650946e+00      -39.46262655    -56.16215940     42.38962244  
H     -0.28398503      0.94265168     -1.52674597     -7.96282328e-01   -4.64237715e+00   -8.42669266e+00      -20.68744589    -31.66533118     26.98081737  
H     -0.30549640      0.94479473     -1.47671306      4.22334510e-01   -1.93650165e+00   -9.70802375e+00      -12.25282770    -13.48991690     16.71168135  
H     -0.47155509      1.00473302     -1.45656532      1.03853575e+01   -8.89442783e+00    3.72806515e-01       -7.47941992     -7.19527907      8.66960410  
H     -0.45405287      0.87377807     -1.55787979      4.08589776e-03   -4.04895383e+00    6.67337048e+00      -13.00381487    -20.02294048     12.23963319  
H     -0.54430670      0.94345815     -1.64444546     -2.08878583e+00    7.81969612e-01    1.09872423e+01        4.69120613      5.71920182     -1.88182581  
H     -0.58689804      0.87962881     -1.62045338      3.78209657e+00    8.36051032e-01   -1.21308378e+01       17.72876437     26.96525123     -4.47954460  
H     -0.73147567      0.90499192     -1.74765289     -4.83884141e+00    6.86172690e-01   -7.99985477e+00      -11.56496758     -9.89707388     -0.50141986  
H     -0.77576179      0.89849436     -1.67851179     -4.20925883e+00    1.11446892e+01    1.48470231e+01      -31.41835876    -24.95615252      0.99122734  
H     -0.64544699      0.92881047     -1.61294620     -2.03445424e-01   -4.42894699e+00    4.44931179e+00       93.41298665     67.20760681    -10.55762034  
H     -0.63464490      1.03589420     -1.56683662      7.03920161e-01   -9.67923198e+00    4.99912880e+00       35.90723588     19.73576271    -12.92228593  
H     -0.62959709      0.95656446     -1.46945020     -3.22389383e+00    5.98453449e-01    6.81160419e+00        6.14074981      5.34268128     -4.24118817  
H     -0.62543202      0.83422280     -1.40289112     -1.03716081e+01   -6.88074985e+00    6.36403804e+00      -45.49323461    -40.69541832     30.08818119  
H     -0.62958666      0.93858000     -1.37205396     -1.21577118e+01   -8.67517915e+00   -2.53906906e+00       13.20579040      6.04788368    -11.02043759  
H     -0.63848840      0.90777234     -1.26850692      7.19921203e+00   -1.89152235e+01   -6.11333863e+00      -40.18596175    -21.62881773     46.77957014  
H     -0.57920669      0.98295638     -1.28745181      7.43938009e+00   -3.26667987e+00    4.92996704e-01       -3.13529019     -0.39285287      3.85457759  
H     -0.53359943      0.92229803     -1.33016900      7.17054210e+00   -6.92849074e-01   -8.36144903e+00      -28.87563772    -12.77584890     25.28631684  
H     -0.43748842      0.88412003     -1.24858083      5.39274418e+00   -2.09170914e+00    1.67587248e+00      -36.47381960    -32.00834165     46.17321425  
H     -0.31942536      0.83515791     -1.29538907     -2.27710891e+00    5.31121857e+00   -1.19574625e+00      -16.61591731    -21.08397817     21.78651188  
H     -0.25071645      0.81379577     -1.48184224     -1.95551114e-02   -2.49808369e+00   -2.79634233e+00       -2.58014798     -4.32020377      3.10170898  
H     -0.32340795      0.87834642     -1.49599776     -1.00003723e+00   -2.60556176e+00    1.34136075e-01      -28.32617112    -47.89312727     25.97233854  
H     -0.28896227      0.89140646     -1.42566548     -7.66338408e+00   -1.46288355e+01    1.20636676e+01       -5.69830051     -8.05607130      7.47330342  
H     -0.25850399      0.75996684     -1.54948826     -8.18262206e+00    2.22825571e+01    1.36869248e+01       -5.93201842    -16.23637281      6.88934372  
H     -0.22151356      0.73856725     -1.48460103      4.44155994e+00    1.34435587e+01   -1.01681673e+01       12.11751914     25.77636240    -15.88113069  
H     -0.20727307      0.75583243     -1.38502000      1.10416432e+01   -2.60539024e+00    3.86579356e+00        0.04003600      0.25683063     -0.24412940  
H     -0.22654106      0.70176759     -1.49122691      2.29580740e+00   -2.88465843e-01   -4.07992660e+00       -6.29666632    -26.12152194     20.23789044  
H      0.01031242      1.26939906     -1.99019283      2.09533841e+00   -6.47353931e+00   -4.89815912e+00      -25.97745255    -57.02347389     68.13087314  
H      0.05392916      1.24175439     -2.01075759     -7.16371327e+00   -9.62091184e+00    1.09497018e+01       13.01222796     19.53796230    -24.95841678  
H      0.15147061      1.31409659     -1.99640991     -1.32749889e+01    2.75793193e+00   -9.35663363e+00       31.06317411     50.73072243    -53.31586235  
H      0.08454754      1.35111417     -1.87601830      4.97291728e+00    2.88816584e-01   -1.51428986e+01       19.11241301     37.65992846    -23.01742896  
H      0.12287604      1.28366340     -1.91777643      6.18614893e+00   -5.13197841e-01    1.55635398e+01       12.02273696     20.33328993    -18.36596322  
H      0.11047135      1.41201313     -1.90883006      3.51043587e+00    4.51326537e+00    1.52665166e+00        8.00017180     10.30456032     -8.13931292  
H      0.14055436      1.57267577     -2.02461068      6.49230789e+00   -7.91159524e+00    1.04582125e+00       39.46208806     56.16358955    -42.39192510  
H      0.07729025      1.49570144     -1.99800534      5.18998267e+00   -6.98275487e+00    1.07198001e+00       20.68696680     31.66650853    -26.98264520  
H      0.07836208      1.36752715     -2.00042290     -1.36205782e+01   -1.07023903e+00    5.52817020e-01       12.25227413     13.49135967    -16.71376810  
H     -0.05198493      1.40856415     -1.94316724     -1.04799910e+01    6.31221801e+00   -6.82300577e+00        7.47881804      7.19683654     -8.67174836  
H     -0.07704646      1.45439598     -1.91286631      1.60506928e+00    2.10860029e+00   -7.92096925e-01       13.00324533     20.02456042    -12.24208295  
H     -0.09385152      1.49241262     -1.82489794     -8.21526579e-01    5.48666233e+00    5.67322453e+00       -4.69166194     -5.71782044      1.87977107  
H     -0.20237581      1.46443407     -1.71755871      1.31570446e+00   -6.88500433e+00   -1.01891885e+01      -17.72921854    -26.96384470      4.47740867  
H     -0.15347838      1.39968567     -1.72265759     -6.44105305e+00   -7.72053231e+00   -1.09760322e+01       11.56460683      9.89843046      0.49943950  
H     -0.14965870      1.39584076     -1.69829055     -1.49704274e+01    1.64436650e+01   -1.22616044e+01       31.41796296     24.95748011     -0.99315076  
H     -0.12627998      1.30232977     -1.67161734      5.65459697e+00    5.11510523e+00    1.70195897e+01      -93.41327691    -67.20657447     10.55610495  
H     -0.05216719      1.35602710     -1.77643694     -7.47067957e+00   -8.46234739e+00   -6.76984714e+00      -35.90752482    -19.73474418     12.92074275  
H     -0.14043474      1.38199952     -1.80707024     -4.99836262e+00    3.23782246e-01   -1.92237708e+00       -6.14122381     -5.34157047      4.23928379  
H     -0.05062699      1.34843585     -1.78309487      4.58370325e+00   -9.14464047e+00   -4.49326155e+00       45.49264198     40.69696278    -30.09079558  
H     -0.10723782      1.17771532     -1.80782195     -2.55980590e+00    2.39627732e+00    3.65475777e+00      -13.20639026     -6.04635443     11.01799245  
H     -0.11410064      1.19004755     -1.87900154     -8.33674898e+00    1.24832604e+01    9.70079647e-01       40.18510609     21.63090751    -46.78280888  
H     -0.10917286      1.04221453     -1.86599373     -7.55094207e+00    8.31364898e+00    9.80583614e+00        3.13463360      0.39474628     -3.85744419  
H      0.03769339      1.17511290     -1.83052860      1.80601963e+00    6.01843323e+00   -6.63987082e+00       28.87499730     12.77774446    -25.28925403  
H      0.02914522      1.29367865     -1.83939181      7.52570037e-01    2.17985618e+01   -2.99862255e-01       36.47299197     32.01087009    -46.17731081  
H      0.06032737      1.31713796     -1.79347838      2.82341903e+00    2.09643869e+00   -3.28223126e+00       16.61519790     21.08622480    -21.79023857  
H      0.07585523      1.36112080     -1.87514737      1.40917403e+01   -2.95159906e+00    4.18433692e+00        2.57968446      4.32172889     -3.10437766  
H      0.06551904      1.53597813     -1.85266453      5.68672174e+00   -8.98585269e+00   -1.19985736e+01       28.32572126     47.89458133    -25.97484801  
H      0.05948874      1.38430813     -1.88304899      8.78359544e+00   -3.78901849e+00   -4.20371137e+00        5.69771388      8.05784806     -7.47626746  
H     -0.01441734      1.42821687     -1.83316619      7.52359010e+00    1.30299286e+00    4.31395048e+00        5.93157202     16.23773817     -6.89192545  
H      0.04108615      1.29707119     -1.82863404      1.18020318e+00    4.99924611e+00    6.22026607e+00      -12.11799901    -25.77494446     15.87855662  
H     -0.12039511      1.29239926     -1.88893173      4.38766471e+00   -4.14356238e-01   -5.88517402e+00       -0.04049082     -0.25535037      0.24142554  
H     -0.07893525      1.31425471     -1.96582464      6.50492823e+00    3.60691107e-01    2.93307351e+00        6.29621360     26.12272048    -20.24021570  
H      0.50399324     -2.28747023      3.58730356      1.76320552e+01    7.17427291e+00   -9.69675752e-01        0.00040141     -0.00100556      0.00174127  
H      0.54963689     -2.30324911      3.53069950     -3.01528970e+00   -9.63886887e+00   -3.97885396e+00        0.00051681     -0.00121759      0.00202620  
H      0.54009535     -2.33063720      3.44480860      5.15425756e+00    2.08728441e+01    3.34063738e+00        0.00054255     -0.00146857      0.00242968  
H      0.35366352     -2.34116487      3.32204702      3.41604269e+00    1.03412348e+01    1.57698949e+00        0.00047218     -0.00158017      0.00271462  
H      0.42875075     -2.32990758      3.35607536      4.49324828e+00   -8.35694117e+00    8.80148848e+00        0.00053639     -0.00160423      0.00267095  
H      0.50354646     -2.28832168      3.30359504      8.79699796e-01   -8.85596601e+00    5.05606219e+00        0.00051263     -0.00137017      0.00218742  
H      0.56131156     -2.19504390      3.25082115     -2.61643460e+00    7.18433967e+00    7.06918059e+00        0.00053849     -0.00143016      0.00230265  
H      0.56649884     -2.39003902      3.31319865      2.42798368e+00   -7.83325128e-01   -6.59073238e-01        0.00047909     -0.00117735      0.00182783  
H      0.51156263     -2.37827010      3.25605533     -1.04715046e+01   -5.98600664e-01    1.76190225e+00        0.00055357     -0.00144277      0.00208675  
H      0.45298202     -2.38732503      3.16689958     -1.45862344e+01   -7.40915154e+00    2.16644505e+00        0.00060188     -0.00155747      0.00214425  
H      0.37189622     -2.40491528      3.10623072     -5.05825614e+00   -3.51072987e+00   -2.26542119e+00        0.00056954     -0.00161994      0.00244976  
H      0.44676969     -2.30808389      3.10965813     -9.63088939e+00    2.39523379e-01    8.39588395e+00        0.00045581     -0.00138138      0.00205474  
H      0.39685669     -2.29336209      3.14170082      6.66635179e+00   -5.31618208e+00    9.21258257e+00        0.00045417     -0.00140654      0.00213594  
H      0.34783404     -2.24645421      3.10693931      1.60365820e+00   -2.42299751e-02    7.56773992e+00        0.00036074     -0.00135659      0.00198036  
H      0.43168968     -2.28037099      3.16206368     -7.16785630e+00   -9.30876123e+00    9.78966315e+00        0.00039580     -0.00132760      0.00192342  
H      0.48160895     -2.30132442      3.30028661     -4.85312886e+00   -7.53022454e-01   -8.14551871e+00        0.00029026     -0.00103234      0.00151539  
H      0.41201104     -2.19814544      3.38596089      7.07566769e+00    3.53698789e+00   -1.58124570e+00        0.00028893     -0.00101853      0.00154318  
H      0.45460191     -2.01300641      3.51473662      2.98923182e+00    1.63958599e+00    8.75370468e-01        0.00047400     -0.00111081      0.00190438  
H      0.42719007     -2.06316097      3.46411321      1.94038875e-01    7.56343455e+00   -4.27656543e+00        0.00059263     -0.00154446      0.00261439  
H      0.41675629     -2.04873818      3.41527096      6.95101673e+00    1.60347977e+01    4.93781024e+00        0.00059986     -0.00152926      0.00244514  
H      0.44321524     -2.05696376      3.36199755      1.43901532e+01   -4.33213712e+00   -6.19375681e-01        0.00085566     -0.00208978      0.00323874  
H      0.35722394     -2.03497090      3.39136480      6.73418593e+00    6.48074217e+00   -6.03536373e+00        0.00065659     -0.00189341      0.00286660  
H      0.38313336     -2.09530908      3.36261984      2.00407080e+00   -6.24274143e+00    4.07069740e+00        0.00064042     -0.00189557      0.00293718  
H      0.30620711     -1.96739351      3.34846557     -4.87779232e+00    1.09043897e+01    2.45157000e+00        0.00082762     -0.00252843      0.00409656  
H      0.32345722     -2.06583279      3.35531826      7.65361267e+00    6.19760977e+00   -7.92221333e+00        0.00071941     -0.00224663      0.00372669  
H      0.29186881     -2.20470823      3.37081014     -6.22942308e+00    7.44204069e+00    2.35358193e+00        0.00046352     -0.00152511      0.00266867  
H      0.34022294     -2.14963180      3.37090730     -1.00190532e+01   -8.67008139e+00   -1.31817894e+00        0.00044986     -0.00145406      0.00250946  
H      0.34140834     -2.12145395      3.34038169     -7.68360187e+00   -3.07663304e+00   -8.55246419e+00        0.00058663     -0.00177676      0.00296404  
H      0.42857209     -2.14374391      3.38548388      9.60603080e+00    9.06467672e+00   -1.00214308e+00        0.00044639     -0.00136536      0.00258173  
H      0.41105462     -2.26135461      3.39371568      2.43269423e+01    2.39087216e+00   -3.71790501e+00        0.00047987     -0.00141794      0.00257407  
H      0.40349818     -2.23961251      3.50086631      4.08430198e+00   -1.68085578e+00   -1.77137747e+01        0.00045482     -0.00148026      0.00270386  
H      0.48973255     -2.26501010      3.50304031      9.10295833e+00    1.03242312e+01    2.62713339e+00        0.00045272     -0.00119854      0.00232526  
