3
100000  xi=  -0.02630856  Mean pot=  -107.36855502  Cent pot=  -109.05359520 kcal/mol
H     -0.68170208      1.63832574     -5.33291703       0.17581053
H     -0.49983006      2.06286973     -4.79366840       0.18921605
H      1.18153215     -3.70119547     10.12658542       0.25099441
3
200000  xi=  -0.02226865  Mean pot=  -107.95206208  Cent pot=  -108.49550818 kcal/mol
H      0.91323510     -1.86605113      5.07976576       0.18898959
H      0.23750034     -1.70566499      5.05580952       0.21737057
H     -1.15073544      3.57171613    -10.13557528       0.19166841
3
300000  xi=  -0.02981792  Mean pot=  -106.34083453  Cent pot=  -105.64931153 kcal/mol
H      2.64537181      4.47207726     -1.03509236       0.17747747
H      3.18820461      4.38952592     -1.39095568       0.21044381
H     -5.83357641     -8.86160319      2.42604803       0.23855012
3
400000  xi=  -0.03549616  Mean pot=  -106.13781835  Cent pot=  -109.39820337 kcal/mol
H     -1.47869436     -3.70086345     -3.43380250       0.21175266
H     -1.22519666     -4.38144942     -3.42068481       0.14308936
H      2.70389102      8.08231286      6.85448731       0.21017400
3
500000  xi=  -0.03280745  Mean pot=  -105.21638420  Cent pot=  -109.25265708 kcal/mol
H      0.78277268     -3.78378517      3.30300967       0.13560193
H      0.79412142     -4.46455177      3.65530709       0.18334320
H     -1.57689410      8.24833694     -6.95831676       0.21951730
3
600000  xi=  -0.04031759  Mean pot=  -105.83392587  Cent pot=  -109.17075646 kcal/mol
H      2.72995871      4.08271049      3.00068441       0.18927732
H      2.10979277      3.99267939      2.65775623       0.19774348
H     -4.83975148     -8.07538988     -5.65844064       0.15923986
3
700000  xi=  -0.02014653  Mean pot=  -106.85850726  Cent pot=  -109.42633308 kcal/mol
H      3.26689675     -2.79875005     -3.08366478       0.19219905
H      2.79880237     -3.14761392     -3.56233382       0.16478980
H     -6.06569912      5.94636397      6.64599861       0.15280824
3
800000  xi=  -0.03030514  Mean pot=  -104.51186451  Cent pot=  -107.08293950 kcal/mol
H     -1.82419921      1.84331009      5.21558784       0.22512315
H     -1.85436002      1.55954487      4.44164687       0.17255083
H      3.67855923     -3.40285496     -9.65723471       0.25709560
3
900000  xi=  -0.03619914  Mean pot=  -107.08265953  Cent pot=  -109.42068632 kcal/mol
H     -1.52957038     -1.45019998     -5.30456090       0.16209799
H     -1.92207113     -1.28810506     -4.71301684       0.14603635
H      3.45164150      2.73830504     10.01757775       0.25687059
3
1000000  xi=  -0.03157133  Mean pot=  -106.60583206  Cent pot=  -109.46601139 kcal/mol
H      1.65868773     -4.84394630     -1.42864815       0.15347689
H      2.08204857     -5.12953474     -0.87873914       0.16031640
H     -3.74073630      9.97348104      2.30738729       0.19173897
3
1100000  xi=  -0.02602554  Mean pot=  -107.93933178  Cent pot=  -109.39175862 kcal/mol
H      0.83281431     -3.10017687     -4.31913205       0.16121495
H      0.45124671     -2.67736648     -4.76921479       0.18666914
H     -1.28406101      5.77754335      9.08834683       0.23542304
3
1200000  xi=  -0.04144486  Mean pot=  -106.73674681  Cent pot=  -109.19078127 kcal/mol
H     -2.96935943     -1.16826679      4.63221530       0.15735288
H     -3.09637137     -0.44598543      4.39860503       0.18339447
H      6.06573080      1.61425222     -9.03082032       0.16742328
3
1300000  xi=  -0.01996384  Mean pot=  -105.21575616  Cent pot=  -109.32110065 kcal/mol
H      1.36710401      4.55664011      2.26269707       0.20706359
H      2.11095367      4.65759424      2.12749509       0.17738028
H     -3.47805768     -9.21423435     -4.39019216       0.20159532
3
1400000  xi=  -0.02974440  Mean pot=  -106.90859861  Cent pot=  -109.48675585 kcal/mol
H     -0.31564163     -0.81761757     -5.14709802       0.14941825
H      0.19839923     -1.18463794     -5.54556950       0.18916768
H      0.11724240      2.00225551     10.69266752       0.18584627
3
1500000  xi=  -0.03555309  Mean pot=  -105.77814574  Cent pot=  -109.49658760 kcal/mol
H      2.54999752      1.78579871      4.26642219       0.18351566
H      2.15046885      2.05824387      4.83091719       0.24791191
H     -4.70046637     -3.84404258     -9.09733938       0.13738125
3
1600000  xi=  -0.02989812  Mean pot=  -105.35902932  Cent pot=  -109.46376975 kcal/mol
H      1.67630194      5.10555720     -0.40809332       0.18543572
H      1.71368562      5.11764787     -1.15783751       0.16413402
H     -3.38998755    -10.22320507      1.56593083       0.16104379
3
1700000  xi=  -0.02381142  Mean pot=  -107.35990731  Cent pot=  -107.44580256 kcal/mol
H      4.83047393     -1.99475954     -1.79415556       0.24238118
H      4.61664259     -1.48291438     -2.18087826       0.15685432
H     -9.44711652      3.47767392      3.97503383       0.25465149
3
1800000  xi=  -0.03120159  Mean pot=  -106.02286811  Cent pot=  -108.03975610 kcal/mol
H     -4.89546419      0.66240604      1.39701393       0.15210006
H     -5.62276574      0.73038014      1.05866188       0.14689015
H     10.51822993     -1.39278618     -2.45567581       0.23750963
3
1900000  xi=  -0.02651616  Mean pot=  -107.31597611  Cent pot=  -109.34282657 kcal/mol
H      4.28818080     -2.96443830     -2.05452531       0.15857359
H      3.94923929     -3.16454334     -1.44843050       0.17619209
H     -8.23742009      6.12898163      3.50295581       0.29387044
3
2000000  xi=  -0.02331264  Mean pot=  -104.45541002  Cent pot=  -108.40941428 kcal/mol
H      1.95377568      4.18664116      1.95683009       0.13283493
H      2.12744661      4.93021445      2.18129719       0.14040044
H     -4.08122229     -9.11685560     -4.13812729       0.24679842
