96
100000  xi=   0.85778606  Mean pot=  -105.44709649  Cent pot=  -109.46625311 kcal/mol
H     -0.13133241     -0.15003176     -1.45976526     -2.37090681e+00   -4.27384516e+00   -6.83423843e+00       10.94148313    -20.00949841    -57.57553442  
H     -0.12213119     -0.12676906     -1.39008970     -1.51716235e+01   -3.24726495e+00    6.24555045e+00       -2.48935200      1.63044428      9.05358129  
H     -0.02011212     -0.09810598     -1.35780325     -5.81435197e+00   -1.81825915e+00   -2.62927356e+00       -3.96945021      1.53522105     10.77907773  
H     -0.09920226     -0.07596207     -1.39773229      6.28136867e-01   -1.56651387e-01   -1.29195553e+00       11.82120546     -3.49645754    -45.41266237  
H     -0.11745687      0.02681191     -1.36558144      1.02813160e+01   -3.39603551e-01    1.23089273e+01        0.60795602      1.25983302     -5.11843228  
H     -0.19768923      0.17529514     -1.33368867      1.48864936e-01    1.83198939e+01    1.00033684e+01       -5.41885277    -39.64147596    123.82666092  
H     -0.25726024      0.22538222     -1.42603846      1.17300369e+01    3.51848596e+00   -4.54903499e+00       21.99846373    -17.40226866    122.93921017  
H     -0.21282946      0.18875609     -1.38459937      2.48278390e+00   -2.11994533e+00   -5.33440403e+00       -8.65363234    -30.63934325    185.94792410  
H     -0.20852299      0.09728265     -1.33728631     -1.18716183e+01   -8.58431288e-01   -8.44010397e+00      -34.11366844    -23.40806015    321.41466491  
H     -0.38766032      0.10939860     -1.34888923      5.08304374e+00   -4.76618339e+00   -5.97742092e-01        1.08219192      6.86882767    119.29345921  
H     -0.34823564      0.01562200     -1.41408338     -5.13569562e+00   -4.23185719e+00    2.62503590e+00       -2.49434624      4.41426484     21.55470911  
H     -0.45808691      0.15078628     -1.37146391      3.82536170e+00    5.05702359e+00    6.41489114e+00        9.76825279     -4.86655550    180.06290297  
H     -0.46595554      0.03945451     -1.29709279     -7.97095187e+00   -1.25975540e+01   -1.62313592e+01      -31.14338266     34.79806564    174.49677827  
H     -0.54408929      0.06128521     -1.41264515     -7.94586920e+00   -7.66853809e+00   -2.02773659e+01       -3.49851687      2.80946790     56.23912239  
H     -0.59327276      0.03511768     -1.45665314     -8.00616475e+00    1.14810169e+01   -2.62316995e+00       -1.24444212     -6.31678568    -70.85495421  
H     -0.44869699     -0.04132660     -1.38958930      1.62681281e+00    8.34637289e+00    1.44602605e+01        9.47336346    -12.91222143    -64.47436353  
H     -0.40145454      0.10425574     -1.35921616      4.57824664e+00   -5.82785989e+00    4.28757302e+00       -2.68017258      0.70281653     15.10475201  
H     -0.41726922      0.05713106     -1.39458286      7.86930340e+00   -2.91197397e+00   -4.60099341e+00       15.40998329     -6.42023665    -72.21839802  
H     -0.33276630      0.00939819     -1.36224240     -7.57560210e+00   -1.25048689e+01    4.46169166e+00       23.96471785     -1.24520615    -82.21896422  
H     -0.39907534      0.10374287     -1.30184676     -6.82778467e+00    5.04178933e+00    7.56472743e+00       12.07447963     16.09760545    -50.35505460  
H     -0.43532428      0.07449298     -1.24530399     -4.56018974e+00   -3.41717065e+00    3.67448010e+00       -0.91916998     -1.54714089      5.28138137  
H     -0.41460999      0.02799325     -1.26454257     -8.32002751e+00    1.22360020e+01    1.15781395e+01        1.89166308      3.47670403    -13.04750766  
H     -0.26964426      0.06182328     -1.29533414     -8.24762561e-01   -1.90901154e-01    6.43905151e-01       14.26519563     13.49048473    -55.42886936  
H     -0.20650608      0.05203755     -1.28944300     -9.34952748e-01    5.02204182e+00    9.84477089e-02       21.36620835      8.48557091    -75.64831418  
H     -0.14845286      0.01233452     -1.18473843     -1.93758704e+00    3.66350925e+00   -3.81590689e-01      -17.09835221     -3.88128338     53.81928114  
H     -0.14781711      0.06874950     -1.36512789      5.46325040e+00    2.06512986e-01    3.06364981e+00        3.55065579      3.81541673    -20.58661758  
H     -0.24604470      0.18457310     -1.39075212      6.88362413e+00   -1.11723106e+01   -2.38246067e+00        0.68059448      7.49901356    -46.69157281  
H     -0.11432865      0.23171213     -1.30353362     -3.78604021e+00   -6.45908459e+00    4.79854624e+00       12.22716660     17.52963978    -32.76710885  
H     -0.17488550      0.05291631     -1.33437511     -1.12773938e+01    1.05369967e+01    1.55596978e+01      -16.21381450     -8.15652590     62.84707330  
H     -0.11304027     -0.04557548     -1.35096277     -6.54826567e+00    8.03187788e+00   -7.11494423e+00        6.99985538      1.28343841    -26.06786737  
H     -0.15625591     -0.12669256     -1.33178572      7.91549323e+00   -7.54909502e+00    1.18229358e+01       14.60653037     -7.84977390    -41.76237085  
H     -0.17503390     -0.22650074     -1.42127012     -3.06301139e+00   -3.21510076e+00   -2.13244427e+00       13.42977552    -20.49862537    -49.59454716  
H     -0.28028036      0.12266315     -0.67444176      8.95089806e+00    2.38742596e+00   -1.24264611e+00      -10.94565509     20.01371552     57.58013621  
H     -0.31563092     -0.00092821     -0.69689702     -4.09608179e+00   -2.99552348e+00    3.33906560e+00        2.49132464     -1.62868971     -9.02484648  
H     -0.27208299     -0.00098371     -0.68138126     -7.85284902e+00   -2.95257928e+00   -3.01947210e+00        3.98776096     -1.53694364    -10.70191666  
H     -0.30231654     -0.01581115     -0.61286023      1.98436012e+00    2.79833273e+00   -9.38623179e+00      -11.77695770      3.48913548     45.59924722  
H     -0.19603034     -0.14739240     -0.64199705     -1.12738797e+01    6.68524103e+00    6.99680474e+00       -0.56398337     -1.26913238      5.29588771  
H     -0.22425529     -0.01776836     -0.73103434     -1.17740778e+00   -9.01231092e+00    6.61993376e+00        5.47332450     39.62797010   -123.65209967  
H     -0.14649638      0.13756116     -0.80612928     -3.71872850e+00   -9.84263074e+00    9.98089282e+00      -21.94790909     17.38835526   -122.77458076  
H     -0.24060473      0.09098433     -0.79134211      1.93111133e+00   -9.64170514e+00   -8.21265533e-01        8.68323047     30.62560527   -185.84118288  
H     -0.26625950      0.05773427     -0.79417086     -3.30200950e-01   -9.29629622e-01    9.12164694e-01       34.16198738     23.39262709   -321.25827463  
H     -0.38207236      0.14628310     -0.71007705     -5.07898792e+00    2.37375144e+00   -5.29915152e+00       -0.99141942     -6.89897416   -119.05767299  
H     -0.43061849      0.15964059     -0.71635573      7.58427228e+00    2.99877003e+00    5.14960110e+00        2.58461939     -4.44543145    -21.30769431  
H     -0.42539811      0.13446653     -0.76656723     -6.09359384e+00    1.71082405e+00    1.09340667e+01       -9.66995468      4.84057818   -179.81868419  
H     -0.57041632      0.15616594     -0.71186694      1.32957652e+01    6.46497129e+00   -4.16828112e+00       31.23728923    -34.82114725   -174.29978406  
H     -0.58719228      0.09555730     -0.72949174     -2.39777562e+00    1.59406897e+00    1.96744522e+00        3.58462441     -2.82261074    -56.02748106  
H     -0.57747098      0.11202602     -0.59139394     -1.11520803e+01    1.56497189e+01    6.92547124e+00        1.29775200      6.30964157     70.99217230  
H     -0.57009220      0.12474560     -0.55874365      5.07856048e+00   -7.06924280e+00    8.72466063e+00       -9.44065915     12.90966238     64.57178236  
H     -0.53015677      0.13782623     -0.64729863     -1.13493750e+01   -1.30609561e+01   -4.52725008e+00        2.70219030     -0.70586510    -15.02443955  
H     -0.59930159      0.13307594     -0.53979393     -1.52412216e+01    4.47553466e+00    1.15615020e+01      -15.40924109      6.42148243     72.24009036  
H     -0.58901853      0.02274701     -0.48127508      2.24802823e+00   -3.56092734e+00   -2.03387638e+00      -23.94952365      1.24662860     82.28464762  
H     -0.58252521     -0.14146517     -0.53329327     -7.42227848e+00   -1.15687269e+01   -3.78759139e+00      -12.04551946    -16.09801471     50.44963845  
H     -0.56267011     -0.13257172     -0.55148469      4.36331452e+00   -2.55402540e+00   -8.31443404e+00        0.97097341      1.55137358     -5.14745937  
H     -0.51713951     -0.16391064     -0.53716116      8.22112008e+00   -7.68155295e+00    7.17062159e-01       -1.84184615     -3.46963846     13.19654306  
H     -0.47178059     -0.12988209     -0.50550169      1.08616345e+01    6.44076580e+00   -1.48420538e+01      -14.20926170    -13.48740319     55.61354050  
H     -0.44688054     -0.04353489     -0.43412823      7.10332017e+00    1.37943119e+01    2.67713483e+00      -21.29830909     -8.47118617     75.90389234  
H     -0.35609378     -0.03477173     -0.53343317      3.45721926e+00    4.61510352e+00   -2.35953908e+00       17.20079565      3.89668679    -53.49840339  
H     -0.27453914     -0.06880781     -0.61823059      9.05799706e+00   -6.49779038e+00   -7.08836166e-01       -3.50223344     -3.81914029     20.79527431  
H     -0.25698251      0.05591911     -0.58761648     -1.76753626e+00    1.06467295e-01   -7.09730154e+00       -0.63359123     -7.50735749     46.87863870  
H     -0.36235952     -0.12503661     -0.63384458      5.62911872e+00   -1.19426831e+01    3.70719611e+00      -12.17457457    -17.53495705     32.97534404  
H     -0.34336564     -0.03171200     -0.68317488      1.08436484e+01    1.25230474e+01    5.16314316e+00       16.25265373      8.15659390    -62.71431817  
H     -0.31298334     -0.08244899     -0.59945830      1.32874312e+01    1.05418808e+01    4.86804213e+00       -6.96055184     -1.28559688     26.22434087  
H     -0.41829173      0.01436458     -0.57976184      7.52616612e+00    3.47243315e+00   -1.15943054e+01      -14.58911944      7.85146397     41.84522456  
H     -0.37599440      0.08064012     -0.67729946      1.27432700e+01    3.99951183e+00    3.07618290e+00      -13.42592718     20.50286568     49.62665068  
H      0.75173913     -0.12641018      2.22513479      1.73566686e+01    8.30565551e+00   -2.64233526e+00        0.00417195     -0.00421711     -0.00460178  
H      0.79533161     -0.14241229      2.17151178     -3.87636855e+00   -9.55458144e+00   -7.26789342e+00       -0.00197263     -0.00175457     -0.02873481  
H      0.78694431     -0.17209700      2.08888070      4.70590818e+00    2.14773493e+01    2.08289658e+00       -0.01831075      0.00172259     -0.07716108  
H      0.60066450     -0.18503186      1.97052319      3.04555964e+00    1.03617825e+01   -7.68581692e-01       -0.04424776      0.00732207     -0.18658485  
H      0.67340439     -0.17391053      2.00854593      3.72653761e+00   -8.57777499e+00    7.55996129e+00       -0.04397265      0.00929935     -0.17745543  
H      0.75040535     -0.13210937      1.95377471      7.37981039e-01   -8.28185305e+00    2.92220069e+00       -0.05447173      0.01350586     -0.17456125  
H      0.80673490     -0.03802426      1.90581778     -3.65104155e+00    6.18867001e+00    5.58992529e+00       -0.05055464      0.01391340     -0.16462941  
H      0.81321541     -0.23141562      1.96435636      2.40975900e+00   -6.47730965e-01   -1.85531431e+00       -0.02959813      0.01373798     -0.10674123  
H      0.75927672     -0.22099296      1.91043368     -1.14736181e+01   -1.81487905e+00    1.29703393e-01       -0.04831894      0.01543306     -0.15639028  
H      0.69908789     -0.22967399      1.82607076     -1.46774334e+01   -7.60199848e+00    1.61853802e+00       -0.09077250      0.03014649     -0.23578623  
H      0.61972942     -0.25203513      1.76597061     -5.90444456e+00   -4.21529396e+00   -4.16283079e+00       -0.09027315      0.03116661     -0.24701480  
H      0.69205289     -0.15744942      1.77833046     -1.02692070e+01   -2.61116994e-01    7.70872289e+00       -0.09829811      0.02597732     -0.24421878  
H      0.64394881     -0.14491581      1.81262720      6.43984932e+00   -5.23288578e+00    7.29403115e+00       -0.09390657      0.02308161     -0.19699420  
H      0.59421498     -0.09864206      1.77881647      6.62798040e-01   -9.82141803e-01    6.89739285e+00       -0.08610754      0.01314283     -0.21164132  
H      0.67693001     -0.13314530      1.83324526     -7.18214036e+00   -8.85410013e+00    8.07823082e+00       -0.05330987      0.00714411     -0.13721809  
H      0.72875566     -0.15363723      1.96411027     -6.11464199e+00   -1.34105522e+00   -9.86622111e+00       -0.03270431      0.00255905     -0.09741883  
H      0.65675269     -0.04828375      2.04917504      7.08500463e+00    4.28229427e+00   -3.10995010e+00       -0.02201771      0.00304857     -0.08031246  
H      0.70115213      0.13534744      2.17258374      2.13792345e+00    9.98531800e-01   -1.19511433e+00       -0.00074220     -0.00124578     -0.02169235  
H      0.67295477      0.08733533      2.12168712     -2.69646893e-01    7.60532042e+00   -4.83726596e+00       -0.01519420     -0.00142245     -0.06568339  
H      0.66145648      0.10531109      2.07047376      6.49011114e+00    1.62801016e+01    2.28165545e+00       -0.02896017      0.00040925     -0.09458385  
H      0.68870791      0.09889938      2.01133732      1.34419558e+01   -4.78984128e+00   -1.12782017e+00       -0.05180344     -0.00423270     -0.13392200  
H      0.60052458      0.12614476      2.03958529      6.72751380e+00    6.97090057e+00   -8.02847848e+00       -0.04981693     -0.00706557     -0.14903540  
H      0.62868012      0.07015065      2.00276122      9.41347888e-01   -7.16615757e+00    3.26725435e+00       -0.05593393     -0.00308154     -0.18467114  
H      0.55127336      0.20189180      1.98409663     -4.90281573e+00    1.17958129e+01    1.04919568e+00       -0.06789927     -0.01438474     -0.25557816  
H      0.56883995      0.10892812      1.98456527      6.68597962e+00    5.32425289e+00   -9.65412967e+00       -0.10244344     -0.01540342     -0.32087775  
H      0.53945063     -0.02976892      1.99724157     -6.68597565e+00    8.28670440e+00    1.38136427e+00       -0.04842235      0.00372357     -0.20865673  
H      0.58528283      0.02423184      2.00056674     -1.04416896e+01   -9.19835478e+00   -3.69880815e+00       -0.04700325      0.00834394     -0.18706589  
H      0.58866658      0.04756862      1.96906083     -8.41023166e+00   -3.09129468e+00   -9.19958025e+00       -0.05259203      0.00531727     -0.20823518  
H      0.67390781      0.02323164      2.02040068      9.38023436e+00    9.59051572e+00   -3.72594343e+00       -0.03883924     -0.00006800     -0.13275513  
H      0.65659741     -0.09766877      2.03085091      2.32141503e+01    2.25793967e+00   -5.41452339e+00       -0.03930354      0.00215847     -0.15647350  
H      0.65046058     -0.07908711      2.13852529      4.06479339e+00   -6.20983133e-01   -1.99672359e+01       -0.01741093     -0.00169008     -0.08285371  
H      0.73520005     -0.10309312      2.14450409      8.23072674e+00    9.60910631e+00    5.41224441e-01       -0.00384833     -0.00424031     -0.03210352  
