96
100000  xi=   0.24718547  Mean pot=  -105.75765128  Cent pot=  -109.02121136 kcal/mol
H      2.62320564      3.50962299     -0.18664508      6.53177443e+00    2.40676540e+00   -1.61106413e+01       10.73070818      5.01369673     -7.29370339  
H      2.61499240      3.45661262     -0.22683569     -8.80658519e+00    1.96376299e+00    4.11992804e+00       43.18772085     19.39447190    -38.21241746  
H      2.59673760      3.48294258     -0.14581801     -1.14469791e+01    5.09773774e+00   -8.05155035e+00      -57.82609853    -41.13596451     58.33199988  
H      2.58646165      3.41201746     -0.14511628     -1.61901581e+00    1.10257890e+01   -8.78825795e+00      -36.57592367    -10.74759585     32.66700506  
H      2.61743777      3.42645998     -0.13786643      1.26136025e+00    2.81544242e+00    1.31564390e+01      -40.99434613    -17.60738824     37.81332490  
H      2.55267506      3.48457937     -0.17295358      1.58446849e+00    6.32624194e+00    1.04515974e+01      -79.95029043     -7.62899008     79.34826542  
H      2.58843035      3.54961012     -0.28775723      3.89094879e+00   -5.47524968e-01   -1.98749717e+00       -7.48335911      0.47653883      7.61298186  
H      2.56616959      3.48754473     -0.27699322      5.67144326e+00   -1.52238388e+01   -4.99028117e+00        8.35392045     -1.21921983     -8.93841152  
H      2.55211150      3.42915305     -0.22275095     -4.36177900e+00    9.43767822e-01   -9.41718345e+00      -22.43016359      2.91360704     21.66293113  
H      2.41867307      3.46068084     -0.11959689      3.22966618e+00   -4.96447446e+00   -4.84557619e+00      -79.31732295     15.33636593     53.33886366  
H      2.48447704      3.33671740     -0.14566984      3.39765041e+00   -6.27610040e+00    3.80367752e+00       35.13328765    -13.86499586    -17.77747236  
H      2.38241570      3.43811612     -0.17007781     -7.81921819e+00    5.02424518e+00    1.22864760e+01      -15.82211458      4.68827915     10.72105224  
H      2.36554516      3.36170686     -0.08843641      8.08021255e+00   -6.37411488e+00   -1.93936325e+01       42.09307920    -14.06449322    -21.78372011  
H      2.37283964      3.40168600     -0.21917528     -6.96045918e+00   -8.48971149e+00   -8.87046921e-01       78.68254341    -11.04142615    -47.74949578  
H      2.33072568      3.39843815     -0.12672252     -1.00227071e+01    1.43685900e+01    3.59330892e+00       62.09140563     -8.89746633    -32.40690318  
H      2.37696430      3.30795653     -0.12019111      2.33381419e+00    5.67649541e+00    5.10364078e+00       59.44250377    -19.25115688    -40.44478117  
H      2.35347136      3.41380939     -0.12018874     -7.13744919e+00   -6.16435359e+00    2.77237185e+00       -9.19698881      2.84419304      6.75880995  
H      2.37792667      3.45554884     -0.19745784     -4.02657469e+00    5.96687275e+00   -4.68443433e+00       68.46979784     -3.83466624    -62.45142998  
H      2.45012879      3.40010314     -0.08546768     -8.80556069e+00   -2.95366487e+00    7.74585660e+00       68.76037883      0.52809843    -46.29409565  
H      2.34869021      3.50028288     -0.01298919     -3.11142905e+00   -1.23130958e+01   -5.53601465e+00       12.75577879      5.70213595     -7.68694881  
H      2.33091860      3.49113466     -0.06255590      5.03433598e+00   -4.00686621e-01    2.81443035e-02       36.34336510     16.79515516    -30.73375048  
H      2.32839957      3.44915018     -0.11358538      5.73548853e+00    1.34111795e+01    2.23001346e+00       35.54230603     17.84485425    -40.61457368  
H      2.52507833      3.50983201     -0.09981903      6.76900609e+00    3.29886227e+00   -3.28111216e+00       71.30920291     30.68267639    -55.36972111  
H      2.54228184      3.48673377     -0.07975110     -2.48389951e-02    2.39716163e+00   -3.57108777e+00       61.85390217     17.02042417    -54.85265051  
H      2.56242016      3.46113743      0.01054791      1.30353817e+01    2.70547492e+00    4.35839101e+00      -21.11184955     -5.97289609     15.52442456  
H      2.63906716      3.48599391     -0.18007345      2.14018967e+01    1.29276627e+00    4.62679366e-01       44.75561089     13.19348711    -37.34366044  
H      2.64200311      3.57013205     -0.14099335      7.67357302e+00   -1.91171454e+00   -1.26561026e+01       56.04785394      8.92550867    -35.51629985  
H      2.62819614      3.53570435     -0.17495296      1.20434237e+01    1.77757997e-01    2.04792193e+00       57.72869783     16.05165605    -49.09953671  
H      2.64336907      3.36357462     -0.16396985      8.31735932e+00    5.54986130e+00    1.03831905e+01       61.44750719     -6.08164837    -38.99207890  
H      2.63908739      3.37138805     -0.14853147     -1.25878417e+00    1.20582000e+01   -7.96859991e+00       38.01340725      5.71889502    -30.28326155  
H      2.56471460      3.43429006     -0.15277791      9.30258583e+00   -4.82570732e+00   -3.42041837e+00       51.30109501     16.91107288    -44.83234638  
H      2.53069528      3.37936591     -0.21100315      1.13619278e+01    6.05254687e+00   -3.07679528e+00       -0.94583156     -0.22844416      0.84793124  
H      2.03736768      3.23590266      0.21155127      1.31268976e+00   -4.79940246e-01    5.98058560e+00      -10.73070446     -5.01369093      7.29370339  
H      2.01740597      3.18825227      0.30190771     -9.78540176e+00   -5.42653088e+00    1.80159296e+00      -43.18771703    -19.39446591     38.21241752  
H      2.18249842      3.18826373      0.27204519     -1.14219624e+00   -6.57331846e+00    7.56839810e-01       57.82610221     41.13597020    -58.33199978  
H      2.08339357      3.26419417      0.30418821      5.40838789e+00   -5.67451068e+00   -4.60901814e+00       36.57592719     10.74760120    -32.66700489  
H      2.13834572      3.22068623      0.30404970     -1.49640155e+00    6.00900236e+00    4.52043523e+00       40.99434973     17.60739373    -37.81332474  
H      2.09666020      3.44106566      0.27962748     -1.21211251e+00    6.24015756e+00    3.65980922e+00       79.95029392      7.62899553    -79.34826527  
H      2.07773322      3.58213103      0.23178581      4.62028523e+00   -4.07317034e+00    5.56030152e+00        7.48336260     -0.47653332     -7.61298173  
H      2.05166998      3.56263396      0.27350401      2.54453457e-01    6.28826970e+00   -2.74808050e+00       -8.35391722      1.21922502      8.93841163  
H      2.04518549      3.49500107      0.26683543     -7.29634346e+00   -1.25588803e+00   -1.17653917e-01       22.43016693     -2.91360175    -21.66293098  
H      1.88231414      3.56438826      0.24109071     -1.79201769e+00    5.07665552e+00   -1.98758893e+00       79.31732623    -15.33636063    -53.33886345  
H      1.80889799      3.60332788      0.19617373     -2.51059451e-01    7.02607405e+00    1.69699614e+00      -35.13328438     13.86500107     17.77747259  
H      1.80389850      3.60953748      0.22192494      6.44456563e+00    3.93914544e+00    3.99323203e+00       15.82211801     -4.68827360    -10.72105201  
H      1.66971491      3.59420356      0.27166488     -1.44949899e+00    3.01606483e+00   -3.30825617e+00      -42.09307565     14.06449896     21.78372038  
H      1.56665252      3.51481729      0.27006958     -2.77994041e+00    4.14817905e+00   -1.84703951e+01      -78.68253973     11.04143209     47.74949605  
H      1.56839787      3.50767691      0.27115354     -7.62436478e+00    1.59143518e+01   -1.38826849e+00      -62.09140193      8.89747240     32.40690344  
H      1.67578700      3.53504111      0.35689114      4.65387821e+00   -2.29987871e+00    1.59828229e+01      -59.44250006     19.25116291     40.44478138  
H      1.78421590      3.58985293      0.29815348      1.90673067e+00   -9.28358826e+00   -4.92278023e+00        9.19699251     -2.84418715     -6.75880982  
H      1.67657870      3.49482802      0.44224297     -2.66297832e+00   -2.35150083e+00    9.19054515e+00      -68.46979363      3.83467293     62.45143009  
H      1.69826308      3.39432864      0.42073872      4.55723352e+00   -1.03799129e+01   -6.25785985e+00      -68.76037461     -0.52809180     46.29409582  
H      1.73903680      3.22775341      0.35440313     -1.00746193e+01    8.72990957e+00    6.27188174e+00      -12.75577436     -5.70212899      7.68694904  
H      1.74095493      3.21849809      0.43634663     -4.63513038e+00   -3.34285448e+00   -5.55682651e+00      -36.34336067    -16.79514818     30.73375077  
H      1.80771543      3.18772843      0.48140599     -4.31149993e+00   -5.66808370e+00    7.69003799e+00      -35.54230157    -17.84484741     40.61457394  
H      1.80352883      3.19936622      0.46044520      3.74038464e+00    4.71789164e+00   -1.21060295e+01      -71.30919871    -30.68266991     55.36972138  
H      1.87380889      3.30278916      0.51305732      7.71025430e+00    2.00007353e+01    4.56755290e+00      -61.85389792    -17.02041783     54.85265080  
H      2.00300758      3.30287018      0.42190730     -1.09584869e+01    7.39893840e+00   -9.21849167e+00       21.11185356      5.97290206    -15.52442431  
H      2.01050777      3.30070119      0.34439061     -5.79072019e+00   -4.05753824e+00    5.42791657e-01      -44.75560724    -13.19348163     37.34366059  
H      1.92460201      3.45588738      0.31360806     -1.45155366e+00   -6.98071491e+00    4.14402394e-01      -56.04785035     -8.92550318     35.51630000  
H      1.96682528      3.35180801      0.38755763     -9.38919256e+00   -1.59076286e+01    5.42625183e+00      -57.72869406    -16.05165035     49.09953690  
H      1.90815335      3.43634121      0.30256804     -7.43635482e+00    2.07298552e+01    7.24154071e+00      -61.44750332      6.08165430     38.99207903  
H      2.00502486      3.27599708      0.35659248      8.41052692e+00    9.07747897e+00    3.63751814e+00      -38.01340350     -5.71888930     30.28326170  
H      1.93205767      3.22573884      0.40010494      7.66636191e+00    4.49242689e+00    1.02141654e+00      -51.30109115    -16.91106694     44.83234650  
H      1.98834059      3.24837121      0.27521311     -1.02804822e+00   -3.28128992e+00    1.55043625e+00        0.94583544      0.22845020     -0.84793118  
H     -4.32048404     -6.89922656      0.06602410      1.60953956e+01    4.48569085e+00   -5.89381411e-01       -0.00000372     -0.00000580     -0.00000000  
H     -4.27487279     -6.91503247      0.00939297     -4.54829598e+00   -1.23295960e+01   -3.59961382e+00       -0.00000382     -0.00000599     -0.00000005  
H     -4.28437670     -6.94237441     -0.07643360      3.61837848e+00    1.81804873e+01    3.72045718e+00       -0.00000368     -0.00000569     -0.00000011  
H     -4.47084873     -6.95298960     -0.19924312      1.88069827e+00    7.64984747e+00    1.95929832e+00       -0.00000352     -0.00000535     -0.00000016  
H     -4.39574496     -6.94170087     -0.16514381      2.95854118e+00   -1.10510899e+01    9.18260405e+00       -0.00000361     -0.00000549     -0.00000016  
H     -4.32093705     -6.90014889     -0.21764008     -6.57513839e-01   -1.15474650e+01    5.43564019e+00       -0.00000349     -0.00000545     -0.00000015  
H     -4.26320253     -6.80688932     -0.27042080     -4.14947956e+00    4.49102856e+00    7.45262627e+00       -0.00000350     -0.00000551     -0.00000014  
H     -4.25796707     -7.00182071     -0.20800774      8.89879795e-01   -3.47667527e+00   -2.80231737e-01       -0.00000323     -0.00000520     -0.00000011  
H     -4.31293731     -6.99011803     -0.26521233     -1.20057023e+01   -3.29186688e+00    2.14560818e+00       -0.00000334     -0.00000529     -0.00000015  
H     -4.37149952     -6.99911474     -0.35430397     -1.61224593e+01   -1.01020072e+01    2.54744147e+00       -0.00000328     -0.00000530     -0.00000021  
H     -4.45258548     -7.01674124     -0.41501000     -6.59505856e+00   -6.20496423e+00   -1.88562152e+00       -0.00000327     -0.00000521     -0.00000022  
H     -4.37773621     -6.91992422     -0.41157064     -1.11636595e+01   -2.45027309e+00    8.77994296e+00       -0.00000343     -0.00000555     -0.00000024  
H     -4.42761420     -6.90515929     -0.37948542      5.12800048e+00   -8.01143001e+00    9.58975710e+00       -0.00000355     -0.00000574     -0.00000026  
H     -4.47668348     -6.85830614     -0.41431756      7.03179714e-02   -2.71479443e+00    7.95379019e+00       -0.00000369     -0.00000594     -0.00000027  
H     -4.39279879     -6.89215766     -0.35913738     -8.70526670e+00   -1.20027670e+01    1.01672537e+01       -0.00000370     -0.00000607     -0.00000026  
H     -4.34289042     -6.91314438     -0.22097860     -6.38784885e+00   -3.44671130e+00   -7.76294047e+00       -0.00000371     -0.00000604     -0.00000020  
H     -4.41250879     -6.80994196     -0.13530701      5.54139486e+00    8.48140419e-01   -1.19900146e+00       -0.00000369     -0.00000589     -0.00000013  
H     -4.36988012     -6.62476443     -0.00651810      1.45176736e+00   -1.05828539e+00    1.25409891e+00       -0.00000422     -0.00000670     -0.00000011  
H     -4.39733205     -6.67496984     -0.05719878     -1.33938954e+00    4.87470623e+00   -3.88904315e+00       -0.00000422     -0.00000663     -0.00000017  
H     -4.40773187     -6.66047459     -0.10597834      5.41408264e+00    1.33386884e+01    5.31413316e+00       -0.00000443     -0.00000696     -0.00000023  
H     -4.38128137     -6.66874846     -0.15931410      1.28563490e+01   -7.02298862e+00   -2.32876875e-01       -0.00000444     -0.00000699     -0.00000029  
H     -4.46727730     -6.64672998     -0.12992116      5.19921382e+00    3.78904929e+00   -5.65487227e+00       -0.00000446     -0.00000684     -0.00000026  
H     -4.44133465     -6.70703909     -0.15865852      4.67341495e-01   -8.93885487e+00    4.45259990e+00       -0.00000420     -0.00000647     -0.00000027  
H     -4.51829528     -6.57916164     -0.17286899     -6.41198590e+00    8.21713273e+00    2.83592262e+00       -0.00000425     -0.00000635     -0.00000029  
H     -4.50099988     -6.67752884     -0.16595717      6.11710452e+00    3.49949946e+00   -7.54416549e+00       -0.00000400     -0.00000598     -0.00000025  
H     -4.53261303     -6.81646898     -0.15051944     -7.76447139e+00    4.75559472e+00    2.73807494e+00       -0.00000365     -0.00000548     -0.00000015  
H     -4.48426374     -6.76137196     -0.15037897     -1.15550214e+01   -1.13651592e+01   -9.40116089e-01       -0.00000358     -0.00000549     -0.00000015  
H     -4.48305313     -6.73319421     -0.18089921     -9.22051138e+00   -5.76957865e+00   -8.16998194e+00       -0.00000377     -0.00000571     -0.00000019  
H     -4.39593468     -6.75552638     -0.13582307      8.07143311e+00    6.37485486e+00   -6.21311223e-01       -0.00000387     -0.00000593     -0.00000014  
H     -4.41341371     -6.87307507     -0.12752831      2.27908080e+01   -3.04264704e-01   -3.33921975e+00       -0.00000375     -0.00000572     -0.00000015  
H     -4.42099785     -6.85140298     -0.02044476      2.54945817e+00   -4.36790374e+00   -1.73313657e+01       -0.00000386     -0.00000594     -0.00000012  
H     -4.33475852     -6.87676235     -0.01821956      7.56799356e+00    7.62842990e+00    3.00649895e+00       -0.00000388     -0.00000604     -0.00000005  
