3
100000  xi=   0.66056165  Mean pot=  -107.83965716  Cent pot=  -109.48042483 kcal/mol
H     -0.41361298      0.87105154     -1.47497253       0.23463639
H     -0.01385109      1.34754146     -1.86638485       0.17483709
H      0.42746407     -2.21859299      3.34135738       0.19079062
3
200000  xi=   0.66299689  Mean pot=  -107.48744983  Cent pot=  -109.33459386 kcal/mol
H     -1.24063310     -0.55635318      1.36476670       0.13015818
H     -0.81314713     -1.12099026      1.50573041       0.13532875
H      2.05378023      1.67734344     -2.87049711       0.18790957
3
300000  xi=   0.65617888  Mean pot=  -106.65279172  Cent pot=  -108.65015464 kcal/mol
H     -0.30659442     -1.08364444      1.62417826       0.16997620
H     -0.28570943     -0.41600625      2.04454227       0.17030722
H      0.59230384      1.49965069     -3.66872054       0.24308132
3
400000  xi=   0.65502136  Mean pot=  -106.28754359  Cent pot=  -109.20147926 kcal/mol
H     -1.31060681     -0.84122149      0.88983240       0.13501308
H     -2.06150589     -0.85797088      0.72371105       0.18605438
H      3.37211270      1.69919237     -1.61354345       0.18732743
3
500000  xi=   0.67081403  Mean pot=  -107.48290416  Cent pot=  -106.29410245 kcal/mol
H      0.20331278      1.49469413      1.31853071       0.16517808
H      0.38753708      0.91265274      1.57264673       0.21759127
H     -0.59084986     -2.40734687     -2.89117744       0.20752104
3
600000  xi=   0.65347939  Mean pot=  -107.92363307  Cent pot=  -109.46298535 kcal/mol
H      1.52546597      0.40456151      1.80693902       0.11747262
H      1.14219025     -0.03087294      1.32978961       0.13353842
H     -2.66765622     -0.37368857     -3.13672863       0.19553307
3
700000  xi=   0.65197829  Mean pot=  -106.91808899  Cent pot=  -109.21696420 kcal/mol
H     -1.53188297      0.83422722     -0.98928329       0.19048731
H     -1.49744672      1.33226098     -0.47568068       0.18482176
H      3.02932969     -2.16648820      1.46496397       0.18117150
3
800000  xi=   0.67084220  Mean pot=  -106.10524623  Cent pot=  -109.49887541 kcal/mol
H      1.46798596      0.42281818     -1.63984137       0.17175716
H      0.74308381      0.43729952     -1.49176779       0.16784028
H     -2.21106976     -0.86011770      3.13160916       0.20623970
3
900000  xi=   0.66577317  Mean pot=  -104.67772133  Cent pot=  -109.44342916 kcal/mol
H     -0.67205750     -0.92884942      2.03145361       0.17794888
H     -0.75053994     -0.58936591      1.38989802       0.18265286
H      1.42259743      1.51821533     -3.42135163       0.23676390
3
1000000  xi=   0.65074814  Mean pot=  -107.94561616  Cent pot=  -108.88832651 kcal/mol
H     -1.65100332     -1.22694779     -0.03830590       0.18048488
H     -1.92649420     -0.57850742     -0.02047170       0.16735348
H      3.57749753      1.80545521      0.05877760       0.16471224
3
1100000  xi=   0.65515755  Mean pot=  -106.22995439  Cent pot=  -109.25409014 kcal/mol
H     -1.22907084      0.86923269      1.04624945       0.14886270
H     -1.60338704      1.40708345      0.75294913       0.15018223
H      2.83245788     -2.27631614     -1.79919858       0.18641203
3
1200000  xi=   0.66278968  Mean pot=  -106.74959468  Cent pot=  -108.99950849 kcal/mol
H     -0.96226334     -1.21931527      1.12711940       0.20759592
H     -0.39330615     -1.63930614      1.16407786       0.23612861
H      1.35556949      2.85862141     -2.29119726       0.20893897
3
1300000  xi=   0.66618903  Mean pot=  -106.60122089  Cent pot=  -108.30680509 kcal/mol
H      0.56753256      1.12015763      1.73114041       0.16055931
H      0.03047011      0.68834052      1.68164330       0.21359586
H     -0.59800267     -1.80849815     -3.41278371       0.25116419
3
1400000  xi=   0.66327130  Mean pot=  -105.91723009  Cent pot=  -109.35660007 kcal/mol
H     -0.95038672     -1.27886003      1.64514363       0.18413961
H     -0.29345597     -0.94400322      1.45859638       0.13721354
H      1.24384269      2.22286325     -3.10374001       0.21427654
3
1500000  xi=   0.66191414  Mean pot=  -105.32893828  Cent pot=  -109.42959651 kcal/mol
H     -1.45328745      1.12428741      0.68536732       0.13632202
H     -1.51081067      0.59603149      1.22141646       0.16678278
H      2.96409812     -1.72031890     -1.90678377       0.24868962
3
1600000  xi=   0.66814603  Mean pot=  -107.54470763  Cent pot=  -109.27790774 kcal/mol
H     -2.14715959      0.31778152      0.85203688       0.20594304
H     -1.50636088      0.03323498      0.69269235       0.21978859
H      3.65352048     -0.35101650     -1.54472924       0.20598531
3
1700000  xi=   0.66182279  Mean pot=  -106.59296500  Cent pot=  -109.42862543 kcal/mol
H      0.62825765      2.04946847     -0.21575644       0.17467421
H      1.09812090      1.49992092     -0.12467381       0.20106215
H     -1.72637855     -3.54938939      0.34043026       0.17746171
3
1800000  xi=   0.66701144  Mean pot=  -105.03838374  Cent pot=  -109.49953734 kcal/mol
H     -1.46994489     -0.72146244     -0.82663590       0.17333926
H     -1.78735437     -0.14707509     -1.17233915       0.24271076
H      3.25729927      0.86853753      1.99897505       0.18410641
3
1900000  xi=   0.66330970  Mean pot=  -105.82979739  Cent pot=  -108.55309528 kcal/mol
H      1.33949025      1.19536812      0.21502322       0.15188529
H      1.62542052      1.49267892     -0.46111261       0.14672522
H     -2.96491076     -2.68804705      0.24608939       0.15628027
3
2000000  xi=   0.65218332  Mean pot=  -106.99908355  Cent pot=  -109.14488774 kcal/mol
H     -1.28788483     -1.66740084      0.98054911       0.17305524
H     -1.25148829     -1.23741061      0.41261507       0.22011278
H      2.53937312      2.90481146     -1.39316418       0.13357501
