3
100000  xi=   1.06419311  Mean pot=  -103.42148966  Cent pot=  -106.62078259 kcal/mol
H     -1.20675525     -0.55121041     -0.13875569       0.30705705
H      0.29888522      0.04178941      0.06548693       0.16125694
H      0.90787003      0.50942100      0.07326877       0.15772633
3
200000  xi=   1.06676136  Mean pot=  -103.57543328  Cent pot=  -105.86975381 kcal/mol
H     -0.67900483      0.06897884      1.10487246       0.14896491
H      0.24020480     -0.07761372     -0.21274744       0.17880072
H      0.43880003      0.00863488     -0.89212503       0.18382830
3
300000  xi=   1.06610690  Mean pot=  -102.94152509  Cent pot=  -106.06390281 kcal/mol
H      0.75489252     -1.05683599      0.25640773       0.21386201
H     -0.22053583      0.30059610      0.14995683       0.16926532
H     -0.53435669      0.75623989     -0.40636455       0.16111867
3
400000  xi=   1.07331077  Mean pot=  -104.92980767  Cent pot=  -106.80550916 kcal/mol
H     -1.31619252      0.05452688     -0.37027327       0.18736531
H      0.29701647      0.01894587      0.31704841       0.18270885
H      1.01917605     -0.07347274      0.05322486       0.14129144
3
500000  xi=   1.06621463  Mean pot=  -103.86029292  Cent pot=  -106.29658917 kcal/mol
H      0.75892758     -1.10743008     -0.22192799       0.25360365
H     -0.25345474      0.18015849      0.15013007       0.12810112
H     -0.50547284      0.92727159      0.07179793       0.15657862
3
600000  xi=   1.07237222  Mean pot=  -103.87667686  Cent pot=  -105.63690667 kcal/mol
H      0.04133756      1.28265965      0.28066975       0.26185057
H      0.09452314     -0.31713811     -0.20713127       0.16069037
H     -0.13586070     -0.96552155     -0.07353848       0.16256876
3
700000  xi=   1.07347664  Mean pot=  -102.70396826  Cent pot=  -106.16523100 kcal/mol
H      0.14048613     -0.26718739      1.30683733       0.16553957
H      0.03525569     -0.19104139     -0.45958175       0.19247733
H     -0.17574182      0.45822878     -0.84725558       0.14994431
3
800000  xi=   1.07587283  Mean pot=  -102.52348664  Cent pot=  -104.85556715 kcal/mol
H     -0.97984763     -1.06839861     -0.03581940       0.15223247
H      0.30388264      0.24111789     -0.21797856       0.17086724
H      0.67596498      0.82728072      0.25379796       0.15058378
3
900000  xi=   1.06418315  Mean pot=  -103.77137575  Cent pot=  -106.36524298 kcal/mol
H     -0.80256912      0.64174947      0.81732019       0.23629546
H      0.09974102     -0.10122091     -0.32141083       0.17604125
H      0.70282811     -0.54052857     -0.49590936       0.16623784
3
1000000  xi=   1.06641854  Mean pot=  -103.63383897  Cent pot=  -105.82384037 kcal/mol
H     -0.79146394     -0.69498078     -0.76377532       0.20250906
H      0.21543941      0.19095626      0.11894461       0.20780702
H      0.57602453      0.50402452      0.64483071       0.17803743
3
1100000  xi=   1.07041546  Mean pot=  -105.15744874  Cent pot=  -106.99278253 kcal/mol
H     -0.19561450      0.34014180     -1.31528553       0.21338616
H      0.18599522     -0.02795248      0.31092169       0.14678824
H      0.00961928     -0.31218932      1.00436384       0.12799175
3
1200000  xi=   1.06962543  Mean pot=  -104.54698252  Cent pot=  -107.08980621 kcal/mol
H     -0.79384974      0.07718203     -1.09968190       0.19667991
H      0.13657555      0.04967338      0.29694549       0.16011809
H      0.65727418     -0.12685540      0.80273642       0.16086703
3
1300000  xi=   1.07047408  Mean pot=  -104.12095737  Cent pot=  -107.00928719 kcal/mol
H      0.07246768      1.25857109     -0.49042508       0.21754480
H     -0.15355824     -0.32057318      0.07017853       0.16946277
H      0.08109056     -0.93799792      0.42024655       0.21897450
3
1400000  xi=   1.06775160  Mean pot=  -104.72620742  Cent pot=  -105.43629699 kcal/mol
H      0.28876556     -1.03614171      0.70224298       0.18355942
H      0.08432595      0.30045426     -0.19270201       0.19597832
H     -0.37309150      0.73568745     -0.50954097       0.15567863
3
1500000  xi=   1.06291969  Mean pot=  -101.65880096  Cent pot=  -104.28550410 kcal/mol
H     -1.01776537      0.62529937      0.06374803       0.19516537
H      0.30834758     -0.16296679     -0.29151058       0.12589248
H      0.70941779     -0.46233257      0.22776255       0.17252895
3
1600000  xi=   1.06764983  Mean pot=  -104.19674081  Cent pot=  -106.17827893 kcal/mol
H     -0.74326743     -0.89770903      0.57886430       0.24235223
H      0.39965242      0.10004069     -0.13625986       0.17550366
H      0.34361501      0.79766835     -0.44260444       0.14367533
3
1700000  xi=   1.07025222  Mean pot=  -103.83067445  Cent pot=  -106.94645025 kcal/mol
H     -1.30152645     -0.34776382     -0.00617341       0.16474444
H      0.32832387      0.06036706     -0.14467174       0.19601495
H      0.97320257      0.28739677      0.15084515       0.18428811
3
1800000  xi=   1.07224787  Mean pot=  -102.69190388  Cent pot=  -106.10448832 kcal/mol
H      0.86929369      0.48085472     -0.83182056       0.15220465
H     -0.34739400     -0.36598621      0.06861928       0.18453686
H     -0.52189969     -0.11486851      0.76320128       0.18482023
3
1900000  xi=   1.05528601  Mean pot=  -103.63110205  Cent pot=  -105.58549870 kcal/mol
H      0.34116841      1.05110880     -0.58824300       0.14743355
H     -0.07599008     -0.27537789      0.02086666       0.16356124
H     -0.26517833     -0.77573090      0.56737634       0.20848747
3
2000000  xi=   1.06974454  Mean pot=  -101.65637053  Cent pot=  -106.37547560 kcal/mol
H     -0.61008344      0.32707656      1.12271891       0.20200620
H      0.02912798     -0.16620499     -0.32798251       0.15749338
H      0.58095546     -0.16087157     -0.79473640       0.19290053
