3
100000  xi=   0.00749439  Mean pot=  -107.00135548  Cent pot=  -108.75338530 kcal/mol
H      0.83380548      5.28797404      0.02294442       0.18479779
H      0.15502910      5.17324541     -0.10984429       0.25888992
H     -0.98883459    -10.46121944      0.08689987       0.19078868
3
200000  xi=   0.00721906  Mean pot=  -107.95281250  Cent pot=  -109.02568764 kcal/mol
H     -2.26328619     -4.03644126      2.71863373       0.17903997
H     -2.57206478     -3.96569660      2.08427153       0.12136805
H      4.83535097      8.00213786     -4.80290526       0.15750955
3
300000  xi=   0.00657755  Mean pot=  -107.49498118  Cent pot=  -108.79260837 kcal/mol
H      2.83728873     -3.16350659     -3.28075933       0.15472200
H      2.49818092     -2.67400715     -3.65275834       0.17755223
H     -5.33546966      5.83751374      6.93351767       0.21800609
3
400000  xi=   0.00988341  Mean pot=  -106.67352850  Cent pot=  -109.49247926 kcal/mol
H     -0.94636988      5.50064892      0.10664013       0.20565366
H     -1.04339652      4.78794730      0.27215273       0.16796381
H      1.98976641    -10.28859622     -0.37879286       0.24376111
3
500000  xi=  -0.00457410  Mean pot=  -107.65216630  Cent pot=  -108.78273555 kcal/mol
H     -1.69772859     -0.94752147      5.30744183       0.19754881
H     -1.39016183     -0.98503544      4.67767030       0.17723936
H      3.08789042      1.93255692     -9.98511213       0.22526543
3
600000  xi=   0.00332531  Mean pot=  -108.18999738  Cent pot=  -109.46045850 kcal/mol
H      0.54429260      0.71065147      5.15953783       0.18670754
H     -0.00543080      0.25878332      5.33213213       0.25189118
H     -0.53886180     -0.96943479    -10.49166996       0.19066022
3
700000  xi=   0.01393199  Mean pot=  -107.84676098  Cent pot=  -109.07344349 kcal/mol
H     -2.29359822      1.17403189     -4.62322380       0.21384473
H     -2.21812079      1.80783507     -4.31068216       0.15737019
H      4.51171901     -2.98186696      8.93390596       0.19201901
3
800000  xi=   0.01486307  Mean pot=  -105.36550368  Cent pot=  -109.17100428 kcal/mol
H     -2.31895353     -3.25971344      3.82292425       0.22177586
H     -2.28498171     -3.07679310      3.07513074       0.15238518
H      4.60393525      6.33650654     -6.89805499       0.18424295
3
900000  xi=   0.00975161  Mean pot=  -107.15539160  Cent pot=  -109.32643663 kcal/mol
H     -4.94857672      2.06418298     -1.44325548       0.21318366
H     -4.22873224      2.07411894     -1.49443048       0.22930965
H      9.17730897     -4.13830192      2.93768596       0.18866157
3
1000000  xi=   0.01931112  Mean pot=  -108.21754942  Cent pot=  -107.51240092 kcal/mol
H     -1.27756169     -0.99627095      4.74663247       0.20034905
H     -1.65873096     -1.53655893      4.89295717       0.17856223
H      2.93629266      2.53282987     -9.63958964       0.24602016
3
1100000  xi=   0.01219421  Mean pot=  -106.84752551  Cent pot=  -108.84701216 kcal/mol
H      0.30712011      1.86047043     -4.58147859       0.16621617
H     -0.09860197      2.14011869     -5.08374241       0.18848841
H     -0.20851814     -4.00058912      9.66522100       0.25570466
3
1200000  xi=   0.01155373  Mean pot=  -106.11765718  Cent pot=  -108.75125972 kcal/mol
H      2.10748412     -0.42190101      4.60114109       0.19532774
H      2.36832626     -1.05638557      4.74552269       0.17067280
H     -4.47581037      1.47828657     -9.34666378       0.17164810
3
1300000  xi=   0.01771200  Mean pot=  -107.53263314  Cent pot=  -109.43060790 kcal/mol
H     -1.17722083      3.92307497     -3.08275789       0.15437698
H     -0.51178829      4.10482378     -3.31878606       0.17197524
H      1.68900912     -8.02789875      6.40154395       0.18080576
3
1400000  xi=   0.00354106  Mean pot=  -105.19849967  Cent pot=  -109.37786201 kcal/mol
H      2.31022363     -4.16733607     -2.26815021       0.24035801
H      1.61542247     -4.40656368     -2.45798350       0.14608978
H     -3.92564610      8.57389975      4.72613371       0.22398887
3
1500000  xi=   0.00492878  Mean pot=  -107.63918484  Cent pot=  -109.49626596 kcal/mol
H      0.00377022      0.09176846     -5.29013417       0.19982802
H     -0.71058865     -0.10215106     -5.22002078       0.15973169
H      0.70681843      0.01038260     10.51015496       0.19109116
3
1600000  xi=   0.01648272  Mean pot=  -106.37056511  Cent pot=  -109.20710612 kcal/mol
H     -3.16348233     -1.23159507     -3.69975593       0.17275007
H     -3.48739091     -1.86999405     -3.69651561       0.17037532
H      6.65087323      3.10158912      7.39627154       0.18979480
3
1700000  xi=   0.00527871  Mean pot=  -106.97883214  Cent pot=  -109.42275576 kcal/mol
H      2.71909090     -1.08249783      4.42743485       0.22789215
H      2.28915596     -0.55626182      4.68963395       0.22257336
H     -5.00824686      1.63875965     -9.11706880       0.23840199
3
1800000  xi=   0.01129066  Mean pot=  -107.31032804  Cent pot=  -109.42250344 kcal/mol
H     -0.18414228      5.50054365     -0.71394444       0.18376946
H      0.12854224      4.85512848     -0.84103642       0.19862614
H      0.05560004    -10.35567213      1.55498086       0.14365546
3
1900000  xi=   0.01602823  Mean pot=  -106.80038010  Cent pot=  -108.32798852 kcal/mol
H      4.94516201     -0.43110133      1.92962071       0.21913796
H      4.55383720     -0.03001902      2.33458004       0.22054484
H     -9.49899921      0.46112034     -4.26420075       0.15351364
3
2000000  xi=   0.01479323  Mean pot=  -107.00694957  Cent pot=  -109.49661343 kcal/mol
H      1.31652928     -3.96415526      2.74698723       0.16645477
H      1.36241184     -3.96682988      3.48553059       0.18145188
H     -2.67894112      7.93098514     -6.23251781       0.17914665
