3
100000  xi=   0.89098248  Mean pot=  -106.03586906  Cent pot=  -108.83722853 kcal/mol
H     -0.59621921     -0.47729059     -0.81826632       0.22909814
H     -0.37753226      0.14616878     -0.54428259       0.18242978
H      0.97375148      0.33112181      1.36254892       0.18887870
3
200000  xi=   0.88749402  Mean pot=  -106.00629550  Cent pot=  -109.00902490 kcal/mol
H      0.75929717     -0.28638412     -0.77832288       0.17527950
H      0.07242608     -0.08419080     -0.70032334       0.20899799
H     -0.83172325      0.37057492      1.47864622       0.19180019
3
300000  xi=   0.88540345  Mean pot=  -106.76480278  Cent pot=  -108.37226254 kcal/mol
H     -0.13673106      0.64143649     -0.55181672       0.17115228
H     -0.08871867      1.00559466      0.14292174       0.16248424
H      0.22544973     -1.64703114      0.40889498       0.15403650
3
400000  xi=   0.89390123  Mean pot=  -107.00861782  Cent pot=  -108.77822448 kcal/mol
H      0.62690468      0.43852753     -0.64949652       0.20177959
H      0.52077967     -0.26331618     -0.48330524       0.17436101
H     -1.14768435     -0.17521136      1.13280175       0.21745017
3
500000  xi=   0.88557988  Mean pot=  -105.74474642  Cent pot=  -108.83001181 kcal/mol
H     -0.22735622     -0.76732939      0.66324399       0.18539285
H      0.39346347     -0.58288988      0.35663014       0.19041551
H     -0.16610725      1.35021927     -1.01987413       0.20518317
3
600000  xi=   0.88232449  Mean pot=  -106.65039028  Cent pot=  -107.77097549 kcal/mol
H      0.91148413     -0.27385677      0.27837856       0.15798170
H      0.39703691     -0.70959636      0.14047428       0.25227285
H     -1.30852104      0.98345313     -0.41885284       0.18999245
3
700000  xi=   0.88861324  Mean pot=  -106.73453346  Cent pot=  -109.03724256 kcal/mol
H     -0.17535583     -0.98537198      0.36523034       0.15484259
H      0.36068312     -0.66396175     -0.01234229       0.19343105
H     -0.18532729      1.64933372     -0.35288804       0.18806750
3
800000  xi=   0.88815864  Mean pot=  -106.88164749  Cent pot=  -109.00630366 kcal/mol
H     -1.11027421      0.60118817      0.30590155       0.20306058
H     -0.55710307      0.15230934      0.00404669       0.17623980
H      1.66737728     -0.75349751     -0.30994824       0.13633586
3
900000  xi=   0.89619918  Mean pot=  -107.32575667  Cent pot=  -109.04958836 kcal/mol
H     -0.45914185      0.29108827      0.31721292       0.19398362
H     -0.97828389     -0.16546197      0.55419531       0.14488573
H      1.43742574     -0.12562630     -0.87140823       0.23348449
3
1000000  xi=   0.88731622  Mean pot=  -105.59485204  Cent pot=  -108.93228810 kcal/mol
H      1.17154679     -0.12328758      0.30450531       0.15155760
H      0.46397968     -0.17835922      0.36217422       0.16803613
H     -1.63552647      0.30164680     -0.66667953       0.13896903
3
1100000  xi=   0.88161541  Mean pot=  -106.78343775  Cent pot=  -109.32197248 kcal/mol
H     -0.24893429     -0.55679245      0.20633527       0.15893673
H     -0.23746388     -1.23361058     -0.06095015       0.14274772
H      0.48639817      1.79040303     -0.14538512       0.15717692
3
1200000  xi=   0.90213566  Mean pot=  -105.51299956  Cent pot=  -108.82575443 kcal/mol
H     -1.00579840     -0.12664990      0.53351723       0.19770048
H     -0.34176915      0.23848829      0.42937579       0.14639527
H      1.34756755     -0.11183838     -0.96289302       0.21884048
3
1300000  xi=   0.89530818  Mean pot=  -105.92170841  Cent pot=  -109.09308895 kcal/mol
H     -0.97733769      0.34451330      0.49325466       0.19170733
H     -0.60086532      0.19798104     -0.14281637       0.18829126
H      1.57820301     -0.54249434     -0.35043828       0.20339026
3
1400000  xi=   0.88937392  Mean pot=  -106.91081985  Cent pot=  -109.10971865 kcal/mol
H     -1.01972015      0.20549862     -0.42317395       0.15655876
H     -0.43758308     -0.26838536     -0.51205195       0.17550636
H      1.45730324      0.06288674      0.93522590       0.15424564
3
1500000  xi=   0.88209463  Mean pot=  -104.95593898  Cent pot=  -108.80234950 kcal/mol
H      0.93163519      0.53064013     -0.44885069       0.19955132
H      0.58434969     -0.08390985     -0.39959166       0.20026864
H     -1.51598488     -0.44673028      0.84844235       0.19368794
3
1600000  xi=   0.88446965  Mean pot=  -104.99543065  Cent pot=  -108.89760844 kcal/mol
H     -0.46327395      0.27582423      0.66235104       0.18988746
H      0.18993223      0.57574126      0.74633515       0.17414325
H      0.27334172     -0.85156550     -1.40868619       0.21094160
3
1700000  xi=   0.89151799  Mean pot=  -106.02080099  Cent pot=  -108.81750185 kcal/mol
H     -0.00506939     -0.58340386     -0.35694369       0.19382772
H     -0.32959656     -0.41609020     -1.04047687       0.15544082
H      0.33466595      0.99949406      1.39742056       0.18273871
3
1800000  xi=   0.89310659  Mean pot=  -106.28502506  Cent pot=  -108.73600050 kcal/mol
H      0.10690472     -0.38527218     -0.69987945       0.15907501
H      0.75440403     -0.44178387     -0.36064177       0.24358448
H     -0.86130874      0.82705605      1.06052122       0.19640888
3
1900000  xi=   0.88616924  Mean pot=  -105.65863435  Cent pot=  -107.38609368 kcal/mol
H     -0.22148364     -0.91824688      0.48970541       0.20284195
H     -0.57610221     -0.41440404      0.19898785       0.15245183
H      0.79758585      1.33265092     -0.68869326       0.15570111
3
2000000  xi=   0.88432327  Mean pot=  -106.85939575  Cent pot=  -109.25668741 kcal/mol
H     -0.29636748     -0.61761999      0.02410339       0.16517341
H     -0.03237622     -1.10036067     -0.45286942       0.18178328
H      0.32874370      1.71798067      0.42876603       0.19782651
