96
100000  xi=   0.32776069  Mean pot=  -107.00974400  Cent pot=  -109.49212395 kcal/mol
H      1.35486514      3.01803362     -1.59878079      3.47715710e+00   -5.47222030e+00   -1.22865779e+01       17.94037498    -22.33252402    -30.82765768  
H      1.39500696      2.90820153     -1.53495797     -1.17776739e+01    6.13535269e+00    1.13554697e+01       37.56999499    -45.43639287    -42.58121701  
H      1.43290071      2.93159693     -1.45965171     -1.49418703e+01   -3.57259176e+00   -4.12447284e+00        9.79719611    -13.53612533    -10.61236979  
H      1.44202384      2.92964297     -1.40690618      1.23806438e+00    8.23140731e+00   -9.55863551e+00       28.85701637    -30.35222606    -19.27418261  
H      1.45795257      2.93662421     -1.38490003     -2.05746091e+00    3.83489935e+00    1.09786806e+01       -4.38145254      4.74214857      2.91809014  
H      1.45449842      3.10147460     -1.46228380      4.23679452e+00    1.29551598e+01    3.62832183e+00       31.32985169    -24.90358531    -22.50769861  
H      1.47673388      3.24872217     -1.61809074     -7.81755669e+00   -6.59090690e+00   -1.43600290e+00       48.07184591    -29.07595454    -45.22959124  
H      1.51719133      3.24433813     -1.53783643      8.39231124e+00    1.31951550e+00    3.78355428e+00       60.47005302    -23.71312535    -37.32473156  
H      1.40153865      3.20798355     -1.43620673      3.74466327e+00    2.66930839e+00   -1.00642929e+01     -130.11546529     58.67255386     73.67253344  
H      1.22884136      3.18002824     -1.46672496      8.52274224e+00   -2.48080438e+00    6.92390980e+00       -9.03489109      7.66712015      8.45109180  
H      1.31103767      3.11558721     -1.36360069      5.10886489e+00   -8.85147719e+00    2.00259656e+00       15.89381668    -10.87823566     -3.67271057  
H      1.26908980      3.16577658     -1.43045192      1.88989995e+00   -3.09314413e+00    5.69382752e+00       41.80736774    -28.05736876    -18.06780155  
H      1.20282952      3.05599262     -1.32005954      4.23115398e+00   -1.61742339e+00   -1.59907261e+01       58.23088219    -49.19993838    -16.61070294  
H      1.10722259      2.97425192     -1.31348132     -9.90251577e+00    1.35645026e+00   -3.58564180e+00       50.08414803    -60.36211999     -3.87324171  
H      1.04881689      2.95463575     -1.35138382     -5.84681743e+00    1.29865545e+01    1.68907829e+00       43.54187339    -63.18380243    -18.87447634  
H      1.05111158      2.86735493     -1.29224468     -3.46668409e+00   -1.27115657e+00    6.38476971e+00       31.75896379    -76.45214658    -17.34721499  
H      0.96527191      2.98188721     -1.38179270     -5.24053186e+00   -7.27970487e+00   -5.49146284e-01        5.40606163    -47.46731455    -19.29479673  
H      0.94843373      2.94664003     -1.29720203      5.21679028e+00   -2.09093844e+00    1.22555302e+01        7.81981162    -44.60366551    -11.82445458  
H      1.01422286      2.90360418     -1.29098397     -2.04049324e+00   -1.33480299e+01   -4.45951952e+00        6.05045674    -24.57428403     -9.88884401  
H      0.87355573      2.87342139     -1.29868775     -3.16335412e-01   -1.98492621e+00   -6.46912346e+00       -1.03264697    -15.25202543     -6.65921569  
H      0.97690540      2.90252347     -1.23104639     -1.69857946e+00   -1.21709913e+00    5.94170320e+00      -17.38329891     61.64737561     20.03185910  
H      1.04940528      2.89718096     -1.28710654      4.27992976e+00    1.04756699e+01    2.60496892e+00      -19.74074991     43.13227513     23.75492933  
H      1.18766988      2.93037043     -1.36278864      4.58831783e+00    4.48628839e+00   -1.07776766e+01       17.05765911    -28.35719629    -22.68290410  
H      1.28759846      2.98868672     -1.19245006     -8.48962663e-01    1.48806198e+01    1.24486592e+01      -12.04007940     14.07899606      4.90480049  
H      1.38339025      2.98755874     -1.16737490      7.52276148e-01    9.82365916e+00   -3.33529772e+00      -13.27012339     13.56734169      3.57307014  
H      1.43756614      2.99268190     -1.29867465      1.23185334e+01    2.12149995e+00    1.15324094e+00        1.54824052     -1.54623200     -0.38112659  
H      1.42223073      3.22894477     -1.35135212      2.12283289e+00   -8.22001428e+00   -9.54051921e+00      -49.97763298     24.93930986     21.11916890  
H      1.37200162      3.09138978     -1.44766618      9.75432659e+00   -9.07804651e+00   -8.31251969e+00       13.56275801    -12.92769508    -14.53293418  
H      1.41699086      3.05971745     -1.46681771     -1.38587585e-01    1.01191559e+01    7.75857181e+00       37.31424611    -25.75204582    -28.40690642  
H      1.42103339      2.96142362     -1.41981601     -2.65181294e+00    7.53607182e+00   -2.12740835e+00       17.46835187    -15.69496732    -14.70867308  
H      1.36013147      2.94784700     -1.40433172      4.71431469e+00   -4.54808732e+00   -2.09403927e+00       32.72987362    -30.47538549    -26.73052856  
H      1.26955812      2.94400731     -1.52527992      5.74839309e+00   -1.06376227e+01    5.78981959e-01       -2.97935013      4.34057366      4.57047437  
H      1.01239851      3.44434282     -1.01030679      3.25173668e+00    6.29691620e+00    1.63478478e+00      -17.94037124     22.33253546     30.82765302  
H      0.94407448      3.45355026     -1.02387849     -7.92925490e+00   -1.07033665e+01   -5.96304689e+00      -37.56999112     45.43640487     42.58121219  
H      1.05299302      3.45649012     -1.04813388      1.23994157e+00    9.92294164e-01   -3.69033482e+00       -9.79719220     13.53613721     10.61236517  
H      0.93453852      3.46342349     -1.06794653      1.43428504e+00   -3.98261181e+00   -4.36634465e+00      -28.85701230     30.35223793     19.27417817  
H      1.00448122      3.42742598     -1.08288358      7.10306321e-01    3.88281529e+00    6.17413815e+00        4.38145663     -4.74213655     -2.91809468  
H      0.90153223      3.54101849     -1.06502703     -4.98044728e+00   -1.49065924e+00    9.96056649e+00      -31.32984788     24.90359712     22.50769424  
H      0.89610695      3.59991080     -1.07179346      1.52143520e+01    8.64525646e-01    4.48008350e+00      -48.07184217     29.07596633     45.22958685  
H      0.80731059      3.52271551     -1.09966735     -3.57956919e+00   -1.13593031e+01   -1.20418588e+01      -60.47004966     23.71313623     37.32472753  
H      0.90246365      3.43302983     -1.15362602     -1.65196450e+01   -4.08430239e+00    1.11655801e-03      130.11546891    -58.67254241    -73.67253762  
H      0.77879465      3.56194307     -1.04575849     -8.19707697e+00    1.48640899e+00   -1.42802333e+01        9.03489463     -7.66710857     -8.45109587  
H      0.68903716      3.54130451     -1.21987015     -3.07866136e+00    8.49968680e+00    2.97469918e+00      -15.89381302     10.87824726      3.67270651  
H      0.62389587      3.59877321     -1.15161984     -4.37849085e+00    1.09504729e+01    1.00576870e+01      -41.80736405     28.05738091     18.06779729  
H      0.53909811      3.61678698     -1.13072626      1.28595380e+00   -2.84435262e+00   -7.23112719e+00      -58.23087832     49.19995106     16.61069849  
H      0.53897195      3.65911572     -1.26953587     -9.54491376e-01   -6.80129798e+00   -1.63006307e+01      -50.08414390     60.36213314      3.87323699  
H      0.55695504      3.66837875     -1.13817219     -1.29122054e+01    1.61900520e+01   -6.35390818e-03      -43.54186942     63.18381560     18.87447159  
H      0.70834309      3.69248868     -1.10501949      9.33768461e+00    3.54604707e+00    1.41774120e+01      -31.75895970     76.45215980     17.34721002  
H      0.87908127      3.73867498     -1.07416922     -1.10365015e+00   -9.27460550e+00   -2.12878809e+00       -5.40605761     47.46732731     19.29479174  
H      0.81274484      3.72060063     -1.09202481     -1.30204338e+01    4.60304963e+00   -8.26958128e+00       -7.81980707     44.60367983     11.82444868  
H      0.84086756      3.60769754     -1.00765268     -3.32411250e+00   -1.08933912e+00    5.41835441e+00       -6.05045212     24.57429830      9.88883832  
H      0.92082040      3.57151072     -0.99389412     -1.39817267e+01   -2.70427932e+00    6.68343182e+00        1.03265181     15.25204060      6.65920960  
H      0.80167409      3.52395592     -1.02911642      9.80868638e-01   -3.62822496e+00   -1.19955868e+01       17.38330380    -61.64736037    -20.03186501  
H      0.79337059      3.45660018     -0.97900852     -3.96897007e+00   -3.83917293e+00    6.78833632e+00       19.74075481    -43.13226024    -23.75493509  
H      0.84761631      3.49568656     -0.91059280      4.80648108e+00    2.42763595e+00   -5.12999868e+00      -17.05765446     28.35721033     22.68289879  
H      0.83518622      3.51771190     -1.00814956      7.41849540e+00    6.41299786e+00   -1.19815165e+01       12.04008443    -14.07898158     -4.90480592  
H      0.88868850      3.49334022     -1.03417305      2.12445041e-01   -8.24883575e-01   -2.04572370e+00       13.27012818    -13.56732799     -3.57307523  
H      0.91871630      3.51086160     -1.17095129      2.17559181e+00   -5.98819675e+00   -6.73875224e-01       -1.54823626      1.54624410      0.38112197  
H      0.85103086      3.51397881     -1.10997880      2.98653788e+00   -1.77915477e+00   -3.22706726e+00       49.97763703    -24.93929788    -21.11917342  
H      0.92970462      3.51297694     -0.97373062     -8.21518828e+00   -7.75427035e+00    1.52656260e+01      -13.56275367     12.92770776     14.53292941  
H      0.84122027      3.45707976     -1.02849019     -9.58398982e-02    1.50557879e+01    9.33685833e+00      -37.31424184     25.75205867     28.40690147  
H      0.92973274      3.40284774     -1.00613186      8.69113390e+00    1.24944104e+01   -2.72410136e+00      -17.46834765     15.69497982     14.70866832  
H      0.84334870      3.42903305     -0.98227460      1.11375468e+01    3.11264617e+00   -8.31912630e-01      -32.72986947     30.47539800     26.73052367  
H      0.95613064      3.40063445     -1.04446632      3.47314812e+00    1.23020927e+01   -2.63031706e+00        2.97935412     -4.34056130     -4.57047931  
H     -2.02719244     -6.61611589      2.69998583      1.72125248e+01    5.59114604e+00   -6.48785242e-02       -0.00000373     -0.00001145      0.00000466  
H     -1.98152606     -6.63187884      2.64338374     -3.43592644e+00   -1.12278471e+01   -3.07761752e+00       -0.00000387     -0.00001200      0.00000482  
H     -1.99106592     -6.65928400      2.55747436      4.73385071e+00    1.92876936e+01    4.24959875e+00       -0.00000392     -0.00001188      0.00000462  
H     -2.17753329     -6.66983699      2.43477350      2.99577196e+00    8.75168757e+00    2.47906389e+00       -0.00000407     -0.00001187      0.00000443  
H     -2.10240130     -6.65858839      2.46877490      4.07117660e+00   -9.94578035e+00    9.71081642e+00       -0.00000409     -0.00001202      0.00000454  
H     -2.02764497     -6.61703177      2.41633276      4.59575572e-01   -1.04425610e+01    5.95918445e+00       -0.00000382     -0.00001181      0.00000438  
H     -1.96985291     -6.52373970      2.36355991     -3.03736008e+00    5.59313779e+00    7.97548705e+00       -0.00000374     -0.00001179      0.00000439  
H     -1.96466159     -6.71872976      2.42590574      2.00581053e+00   -2.36951401e+00    2.48434836e-01       -0.00000336     -0.00001088      0.00000403  
H     -2.01961600     -6.70696204      2.36880507     -1.08911402e+01   -2.19031000e+00    2.66530301e+00       -0.00000362     -0.00001144      0.00000418  
H     -2.07816042     -6.71600822      2.27960782     -1.50094321e+01   -8.99618361e+00    3.07625077e+00       -0.00000354     -0.00001158      0.00000406  
H     -2.15929179     -6.73361744      2.21897345     -5.47811010e+00   -5.10063139e+00   -1.36299655e+00       -0.00000366     -0.00001161      0.00000405  
H     -2.08438477     -6.63677964      2.22239922     -1.00516982e+01   -1.34773023e+00    9.30373766e+00       -0.00000369     -0.00001215      0.00000427  
H     -2.13431336     -6.62206651      2.25443536      6.24433286e+00   -6.90442106e+00    1.01177895e+01       -0.00000387     -0.00001268      0.00000445  
H     -2.18335624     -6.57514800      2.21969842      1.18436837e+00   -1.61341960e+00    8.47360311e+00       -0.00000413     -0.00001315      0.00000472  
H     -2.09946485     -6.60905645      2.27476937     -7.59178990e+00   -1.08964878e+01    1.06964976e+01       -0.00000397     -0.00001318      0.00000475  
H     -2.04959402     -6.63001392      2.41301461     -5.27113715e+00   -2.34295132e+00   -7.24116151e+00       -0.00000409     -0.00001323      0.00000497  
H     -2.11915666     -6.52680329      2.49865170      6.65329957e+00    1.95118300e+00   -6.74240994e-01       -0.00000402     -0.00001275      0.00000499  
H     -2.07658313     -6.34166875      2.62741158      2.56843022e+00    4.84723811e-02    1.78136265e+00       -0.00000455     -0.00001432      0.00000590  
H     -2.10399910     -6.39181094      2.57681371     -2.25829834e-01    5.97600801e+00   -3.36892575e+00       -0.00000461     -0.00001427      0.00000569  
H     -2.11440358     -6.37737786      2.52792547      6.52804537e+00    1.44453504e+01    5.84363039e+00       -0.00000485     -0.00001516      0.00000610  
H     -2.08798129     -6.38561157      2.47468761      1.39727433e+01   -5.91978504e+00    2.88167737e-01       -0.00000489     -0.00001525      0.00000591  
H     -2.17392565     -6.36359769      2.50402640      6.31116206e+00    4.89264297e+00   -5.12915205e+00       -0.00000489     -0.00001489      0.00000575  
H     -2.14804055     -6.42393930      2.47528116      1.58425254e+00   -7.83244857e+00    4.97899644e+00       -0.00000464     -0.00001405      0.00000530  
H     -2.22495706     -6.29600323      2.46113792     -5.29887940e+00    9.31846917e+00    3.35652132e+00       -0.00000503     -0.00001449      0.00000543  
H     -2.20767750     -6.39443546      2.46794582      7.23157528e+00    4.60645410e+00   -7.01460060e+00       -0.00000479     -0.00001370      0.00000509  
H     -2.23930845     -6.53332610      2.48348914     -6.64846415e+00    5.85827238e+00    3.25852937e+00       -0.00000426     -0.00001210      0.00000461  
H     -2.19091372     -6.47824634      2.48355795     -1.04429338e+01   -1.02609884e+01   -4.13476864e-01       -0.00000405     -0.00001198      0.00000452  
H     -2.18976085     -6.45008935      2.45305129     -8.10344152e+00   -4.66361347e+00   -7.64451576e+00       -0.00000434     -0.00001267      0.00000476  
H     -2.10259180     -6.47236971      2.49817650      9.18413850e+00    7.47634454e+00   -1.00078023e-01       -0.00000427     -0.00001285      0.00000495  
H     -2.12009723     -6.58998379      2.50637607      2.39057870e+01    8.02872481e-01   -2.80977426e+00       -0.00000422     -0.00001250      0.00000476  
H     -2.12768806     -6.56825478      2.61356887      3.66501863e+00   -3.26568690e+00   -1.68113434e+01       -0.00000415     -0.00001250      0.00000489  
H     -2.04141119     -6.59364343      2.61570763      8.68031208e+00    8.73318312e+00    3.53397799e+00       -0.00000400     -0.00001236      0.00000494  
