3
100000  xi=  -0.06665153  Mean pot=  -105.85702120  Cent pot=  -108.83078114 kcal/mol
H     -1.05882489      4.93554072      2.49717322       0.22288520
H     -0.54892116      5.21367153      2.10082899       0.23281538
H      1.60774606    -10.14921225     -4.59800221       0.15641716
3
200000  xi=  -0.06276206  Mean pot=  -108.02893963  Cent pot=  -109.48677264 kcal/mol
H      1.61917675      4.79217041     -2.92504917       0.17880764
H      1.90017031      4.10028860     -2.91746128       0.17675194
H     -3.51934705     -8.89245901      5.84251045       0.16725335
3
300000  xi=  -0.06670248  Mean pot=  -104.80743539  Cent pot=  -108.70426063 kcal/mol
H     -5.02739646     -0.48374714      2.95000084       0.15079379
H     -4.78766839     -0.93541924      2.35101320       0.21040180
H      9.81506485      1.41916638     -5.30101404       0.23561278
3
400000  xi=  -0.06613763  Mean pot=  -106.25855846  Cent pot=  -106.61370305 kcal/mol
H      5.66767505     -0.39611548      0.98833747       0.22654866
H      5.26253900     -0.61100432      1.47001231       0.15643770
H    -10.93021405      1.00711979     -2.45834978       0.27830072
3
500000  xi=  -0.06914870  Mean pot=  -108.29649190  Cent pot=  -109.47456456 kcal/mol
H      3.87310387     -4.47630580      0.70156478       0.15478250
H      3.58041871     -3.91129284      0.30615391       0.25009878
H     -7.45352258      8.38759865     -1.00771870       0.17132293
3
600000  xi=  -0.06189604  Mean pot=  -105.20209951  Cent pot=  -107.67003966 kcal/mol
H     -3.52683672      1.47039916     -4.21114157       0.19874199
H     -2.90717172      1.44815128     -4.48941882       0.16458494
H      6.43400843     -2.91855044      8.70056040       0.29712539
3
700000  xi=  -0.06430378  Mean pot=  -105.29189153  Cent pot=  -108.71047491 kcal/mol
H     -2.97593520      1.57824905     -4.85205901       0.14882218
H     -2.70206089      1.88636379     -4.18122102       0.14739324
H      5.67799609     -3.46461284      9.03328004       0.22779116
3
800000  xi=  -0.07344740  Mean pot=  -107.42792099  Cent pot=  -109.27425823 kcal/mol
H      5.10069666      2.67295343      1.16391898       0.15168657
H      4.85681516      2.42678625      0.53396570       0.12142853
H     -9.95751183     -5.09973968     -1.69788469       0.24974812
3
900000  xi=  -0.06614600  Mean pot=  -105.69639034  Cent pot=  -109.33858101 kcal/mol
H      0.49726377      1.40946961     -5.09658944       0.15813239
H      0.23044600      1.25930995     -5.79399464       0.16068004
H     -0.72770977     -2.66877956     10.89058408       0.19033789
3
1000000  xi=  -0.06245924  Mean pot=  -106.54110585  Cent pot=  -108.43844268 kcal/mol
H      1.21480641      4.75276359     -1.97567413       0.21800736
H      1.26944702      5.44355741     -1.94394847       0.16902702
H     -2.48425343    -10.19632100      3.91962261       0.24584665
3
1100000  xi=  -0.06754937  Mean pot=  -106.34617286  Cent pot=  -109.26939848 kcal/mol
H      1.03495765      5.17115584     -1.96103214       0.23330287
H      0.45477620      5.43189312     -1.53473900       0.16868780
H     -1.48973385    -10.60304897      3.49577113       0.17794492
3
1200000  xi=  -0.06350929  Mean pot=  -108.02533597  Cent pot=  -107.02403807 kcal/mol
H     -3.31626726      0.91000633      4.35351697       0.21920893
H     -2.90683784      0.71192559      4.84588601       0.18805094
H      6.22310510     -1.62193192     -9.19940298       0.22158724
3
1300000  xi=  -0.06529793  Mean pot=  -107.20516986  Cent pot=  -109.31897021 kcal/mol
H     -4.77109751      1.31053337     -3.13352337       0.18881172
H     -4.28004480      0.78432202     -3.18103290       0.18075485
H      9.05114230     -2.09485539      6.31455627       0.22552612
3
1400000  xi=  -0.07497674  Mean pot=  -106.05686271  Cent pot=  -108.33917779 kcal/mol
H      0.16918177      5.40207453     -0.32191796       0.17151349
H      0.78887906      5.84788791     -0.55341013       0.17725632
H     -0.95806084    -11.24996244      0.87532809       0.18058183
3
1500000  xi=  -0.07117559  Mean pot=  -105.64475464  Cent pot=  -109.36419141 kcal/mol
H     -2.04308648     -0.42801956     -5.29103046       0.23729792
H     -2.01535539     -1.17081189     -5.13293319       0.15943010
H      4.05844187      1.59883145     10.42396365       0.20865442
3
1600000  xi=  -0.06493359  Mean pot=  -107.30812540  Cent pot=  -109.12860332 kcal/mol
H      1.96545613      3.58379741      3.98279540       0.22926870
H      2.22298764      2.94077126      4.15057448       0.24236286
H     -4.18844378     -6.52456866     -8.13336988       0.24665355
3
1700000  xi=  -0.07129276  Mean pot=  -107.15482948  Cent pot=  -109.45871137 kcal/mol
H      5.24403743      1.47941229      0.34798028       0.17813687
H      5.63394160      1.27506331      0.93284841       0.16954825
H    -10.87797902     -2.75447560     -1.28082869       0.18166876
3
1800000  xi=  -0.06445167  Mean pot=  -105.76476091  Cent pot=  -109.22443982 kcal/mol
H      4.93176284      2.03121407     -2.08279609       0.19078546
H      4.43786797      2.61425744     -2.00519609       0.20086886
H     -9.36963082     -4.64547151      4.08799219       0.20556216
3
1900000  xi=  -0.05912534  Mean pot=  -107.45546732  Cent pot=  -109.49306753 kcal/mol
H      5.78384243     -0.29068447      0.73273788       0.23853553
H      5.32011546     -0.50278125      0.18959925       0.17707719
H    -11.10395789      0.79346571     -0.92233713       0.20163626
3
2000000  xi=  -0.06538515  Mean pot=  -105.81541344  Cent pot=  -108.00044955 kcal/mol
H      1.20339030     -3.09561400     -4.73624821       0.20499370
H      1.31359834     -2.41942073     -4.72760683       0.20981104
H     -2.51698863      5.51503473      9.46385504       0.20897661
