3
100000  xi=   0.91621439  Mean pot=  -104.63759788  Cent pot=  -108.55863180 kcal/mol
H     -0.29964498     -0.29591042     -0.20019598       0.20122079
H     -0.66567389     -0.29026185     -0.84540798       0.22827071
H      0.96531887      0.58617227      1.04560395       0.19513853
3
200000  xi=   0.91670331  Mean pot=  -104.73062507  Cent pot=  -107.38317031 kcal/mol
H     -0.08527139      0.28945599      0.37202115       0.20225196
H     -0.54221460      0.13966615      1.01724266       0.15126311
H      0.62748598     -0.42912215     -1.38926381       0.15237555
3
300000  xi=   0.91930197  Mean pot=  -104.70809640  Cent pot=  -106.94086607 kcal/mol
H     -0.75492917      0.27418017     -0.30698938       0.19563412
H     -0.42373884     -0.38773301     -0.34888638       0.17207061
H      1.17866802      0.11355283      0.65587575       0.18855090
3
400000  xi=   0.92281408  Mean pot=  -104.77992117  Cent pot=  -106.74357954 kcal/mol
H     -0.24167301     -0.63388397     -0.78538917       0.23656353
H     -0.00674690     -0.39859825     -0.17444063       0.21431635
H      0.24841992      1.03248221      0.95982980       0.20818185
3
500000  xi=   0.92079743  Mean pot=  -104.61643463  Cent pot=  -106.64228347 kcal/mol
H     -0.08295327      0.25856733     -0.35670107       0.15885208
H      0.34870248      0.58772892     -0.78425630       0.21104363
H     -0.26574921     -0.84629625      1.14095737       0.18735413
3
600000  xi=   0.92239969  Mean pot=  -103.08352818  Cent pot=  -107.74130672 kcal/mol
H     -0.97314600      0.28227797      0.26732341       0.16707679
H     -0.44538843     -0.03848005     -0.10863790       0.17580142
H      1.41853443     -0.24379791     -0.15868551       0.19705536
3
700000  xi=   0.91954223  Mean pot=  -107.24860515  Cent pot=  -108.38697165 kcal/mol
H     -0.65419395     -0.01708004     -0.90582591       0.14717264
H     -0.29465971      0.07432632     -0.27612524       0.15339744
H      0.94885366     -0.05724628      1.18195115       0.11003371
3
800000  xi=   0.92006158  Mean pot=  -105.94986684  Cent pot=  -108.27306972 kcal/mol
H     -0.18544225     -0.79271539      0.72552007       0.14383403
H      0.14921826     -0.28503596      0.31122159       0.16183872
H      0.03622400      1.07775135     -1.03674166       0.20293034
3
900000  xi=   0.91667487  Mean pot=  -104.41644037  Cent pot=  -107.33204262 kcal/mol
H      0.43900275     -0.09229653      0.05228169       0.20647680
H      1.01587765     -0.13773800     -0.33505965       0.24814565
H     -1.45488039      0.23003453      0.28277796       0.14712164
3
1000000  xi=   0.91898097  Mean pot=  -105.09528951  Cent pot=  -107.84371040 kcal/mol
H     -0.91168351     -0.52586090     -0.01714069       0.14840837
H     -0.35794460     -0.13422399     -0.38470514       0.21311829
H      1.26962811      0.66008488      0.40184583       0.20231036
3
1100000  xi=   0.91978637  Mean pot=  -105.44906007  Cent pot=  -108.21398170 kcal/mol
H     -1.11583751     -0.18132818     -0.20104199       0.19560780
H     -0.34610685     -0.09123099     -0.22745095       0.20706742
H      1.46194436      0.27255917      0.42849293       0.17324729
3
1200000  xi=   0.91085234  Mean pot=  -106.11106554  Cent pot=  -108.65430165 kcal/mol
H      0.05185744     -0.35126533     -0.40327841       0.21791280
H     -0.14609373     -1.07030648     -0.27728657       0.23239649
H      0.09423629      1.42157181      0.68056499       0.21023465
3
1300000  xi=   0.91479278  Mean pot=  -106.14473033  Cent pot=  -108.54344736 kcal/mol
H     -0.28133709     -1.06668366      0.01967517       0.21299584
H     -0.34485324     -0.33796108     -0.14125197       0.14435943
H      0.62619033      1.40464474      0.12157681       0.20744193
3
1400000  xi=   0.91679683  Mean pot=  -105.22979532  Cent pot=  -106.39546683 kcal/mol
H      0.22560701      0.48982705      0.06474821       0.21202729
H      0.31824797      0.73899415     -0.57059392       0.18627024
H     -0.54385498     -1.22882120      0.50584571       0.15091660
3
1500000  xi=   0.91963267  Mean pot=  -104.77175561  Cent pot=  -107.07583445 kcal/mol
H     -0.17613272     -0.03642204     -0.58001772       0.20160636
H      0.18550649      0.57893716     -0.69351596       0.13967121
H     -0.00937378     -0.54251512      1.27353368       0.16457424
3
1600000  xi=   0.91574078  Mean pot=  -104.47911507  Cent pot=  -107.67032789 kcal/mol
H      0.48136864      0.27192407      0.92482684       0.14046745
H      0.21435606     -0.28562042      0.43663913       0.19731167
H     -0.69572470      0.01369635     -1.36146597       0.17784784
3
1700000  xi=   0.90880674  Mean pot=  -104.88926103  Cent pot=  -108.77862697 kcal/mol
H     -0.42658959      0.26211905     -0.16252699       0.23924753
H     -1.11968926      0.08021881      0.00175997       0.14108216
H      1.54627885     -0.34233786      0.16076702       0.14505088
3
1800000  xi=   0.91919898  Mean pot=  -106.39914593  Cent pot=  -108.33024463 kcal/mol
H      0.58548815      0.70025082      0.64391097       0.14856738
H      0.03405192      0.40587440      0.20650638       0.15778097
H     -0.61954007     -1.10612522     -0.85041735       0.22709699
3
1900000  xi=   0.91847143  Mean pot=  -102.69416895  Cent pot=  -105.73814557 kcal/mol
H      0.21264241      0.69332554     -0.16227531       0.25412873
H      0.57794527      0.30851166      0.31421199       0.22567763
H     -0.79058768     -1.00183721     -0.15193668       0.18004455
3
2000000  xi=   0.91805663  Mean pot=  -104.48541718  Cent pot=  -107.89768879 kcal/mol
H      0.28033209      0.45185555      0.21297001       0.17137539
H     -0.20098261      0.63057865      0.76511950       0.15172824
H     -0.07934947     -1.08243420     -0.97808951       0.20672324
