3
100000  xi=   0.27868648  Mean pot=  -104.86231603  Cent pot=  -108.77396794 kcal/mol
H      1.71795279      3.52485911     -1.07954263       0.19600364
H      1.34512431      3.50377231     -0.38858901       0.22464838
H     -3.06307709     -7.02863142      1.46813164       0.19078779
3
200000  xi=   0.26857446  Mean pot=  -106.99617898  Cent pot=  -109.23155264 kcal/mol
H     -1.75429645     -1.75525253      3.03712255       0.22692442
H     -1.13869889     -1.73004247      3.40376577       0.18439424
H      2.89299533      3.48529500     -6.44088833       0.20055167
3
300000  xi=   0.27312310  Mean pot=  -107.02994305  Cent pot=  -109.49692591 kcal/mol
H     -0.65965222     -1.99932341      3.66887720       0.15676000
H     -0.13384161     -1.80190833      3.18674255       0.18054047
H      0.79349383      3.80123174     -6.85561975       0.16354780
3
400000  xi=   0.27877173  Mean pot=  -106.95320967  Cent pot=  -108.73231361 kcal/mol
H     -1.87778848      1.91054369      2.57075204       0.13332833
H     -1.53158380      2.27784443      3.05655200       0.16386069
H      3.40937228     -4.18838811     -5.62730404       0.18876196
3
500000  xi=   0.27468846  Mean pot=  -106.78260618  Cent pot=  -109.35937845 kcal/mol
H     -2.79870163      2.48503435     -0.24785449       0.16116579
H     -3.25210856      2.39253356     -0.85107809       0.14482260
H      6.05081020     -4.87756791      1.09893257       0.25272807
3
600000  xi=   0.27087395  Mean pot=  -106.68818264  Cent pot=  -109.48743202 kcal/mol
H      1.84265608      0.06048623     -3.66281922       0.23371691
H      2.02090377      0.57857986     -3.17040254       0.23506354
H     -3.86355985     -0.63906610      6.83322176       0.19225383
3
700000  xi=   0.28873798  Mean pot=  -107.36187725  Cent pot=  -109.05375566 kcal/mol
H     -2.65823602      1.18216138      1.99171658       0.18797682
H     -3.19388708      1.20782560      2.45704485       0.17735645
H      5.85212310     -2.38998697     -4.44876143       0.19047817
3
800000  xi=   0.28053716  Mean pot=  -106.98892858  Cent pot=  -109.44916364 kcal/mol
H      3.27380229      1.19452438      1.07872134       0.21393201
H      3.94974227      0.97863034      0.90339021       0.16244540
H     -7.22354456     -2.17315472     -1.98211155       0.16218854
3
900000  xi=   0.28328440  Mean pot=  -105.86033188  Cent pot=  -109.35598341 kcal/mol
H     -1.70789280     -0.53982664      3.06773379       0.20867075
H     -2.25637320     -0.40418606      3.57678853       0.20939597
H      3.96426600      0.94401270     -6.64452231       0.24163762
3
1000000  xi=   0.28140231  Mean pot=  -107.12034974  Cent pot=  -109.49557281 kcal/mol
H      3.89002439     -0.76210643      1.24555941       0.14732693
H      3.51708452     -0.78475743      0.60758336       0.18217626
H     -7.40710891      1.54686386     -1.85314278       0.18963057
3
1100000  xi=   0.26917497  Mean pot=  -107.12891416  Cent pot=  -109.49530589 kcal/mol
H     -3.50170171      0.93286830      1.54235620       0.13972107
H     -3.41456402      0.34392347      1.98866517       0.19880208
H      6.91626572     -1.27679177     -3.53102136       0.16317646
3
1200000  xi=   0.27543411  Mean pot=  -106.98870124  Cent pot=  -109.49752304 kcal/mol
H     -2.41239901      3.14537529     -0.32459246       0.15560885
H     -2.63926693      2.81551853      0.30060821       0.15398751
H      5.05166593     -5.96089382      0.02398425       0.23043065
3
1300000  xi=   0.27910242  Mean pot=  -106.74213862  Cent pot=  -109.32499825 kcal/mol
H     -0.80221870      2.30157228     -3.30035698       0.18857336
H     -0.25566007      2.39170001     -2.83783630       0.19584001
H      1.05787877     -4.69327229      6.13819328       0.13869214
3
1400000  xi=   0.27581062  Mean pot=  -106.43008252  Cent pot=  -109.00009307 kcal/mol
H     -2.06333600      3.60777985      0.71668836       0.19860077
H     -1.95114890      2.91323476      1.04795826       0.15128916
H      4.01448491     -6.52101461     -1.76464662       0.21030427
3
1500000  xi=   0.28466976  Mean pot=  -106.14093364  Cent pot=  -109.37140786 kcal/mol
H     -1.24765880     -1.64937655      3.24890101       0.19589933
H     -1.82662769     -1.87990996      2.87940102       0.19818278
H      3.07428649      3.52928651     -6.12830203       0.22041635
3
1600000  xi=   0.28253635  Mean pot=  -105.63892436  Cent pot=  -109.48531057 kcal/mol
H      0.41548204     -3.57670815      1.58220824       0.17309908
H      0.38682499     -3.72837259      0.85118193       0.16343208
H     -0.80230703      7.30508074     -2.43339017       0.14776593
3
1700000  xi=   0.28434314  Mean pot=  -107.09688150  Cent pot=  -109.24535122 kcal/mol
H     -0.08200054      0.19949424      4.04358484       0.21215136
H      0.50300496      0.37056318      3.66486013       0.23523713
H     -0.42100442     -0.57005742     -7.70844497       0.16904644
3
1800000  xi=   0.27774896  Mean pot=  -106.55829729  Cent pot=  -108.68320463 kcal/mol
H      2.49446085      0.83189090      2.71793578       0.23056547
H      2.14289791      1.16219814      3.22423266       0.25284909
H     -4.63735876     -1.99408904     -5.94216844       0.21007903
3
1900000  xi=   0.27875088  Mean pot=  -106.74811735  Cent pot=  -107.65635113 kcal/mol
H      2.22003753     -0.39974757     -2.91343450       0.21912633
H      2.13835833     -0.82109907     -3.44013667       0.24319383
H     -4.35839587      1.22084664      6.35357117       0.15974293
3
2000000  xi=   0.27289517  Mean pot=  -107.98056110  Cent pot=  -109.41520245 kcal/mol
H     -2.02709414      1.41354082     -2.98684885       0.18619313
H     -1.45210904      1.43502588     -3.43239425       0.14208285
H      3.47920318     -2.84856670      6.41924311       0.18068868
