96
100000  xi=   0.83924922  Mean pot=  -105.85839913  Cent pot=  -109.36776197 kcal/mol
H     -0.06575574      0.21578979     -1.25920590      4.41782463e+00   -8.64325173e-01   -8.00590329e+00      -29.35711368    -16.53464711     22.97220441  
H     -0.10513333      0.10269830     -1.26243765     -1.85436908e+01   -4.70401462e+00    1.62674610e+00      -65.00375000    -22.66200432     64.27516640  
H     -0.03707466      0.17505417     -1.29868437     -7.66082865e+00   -4.49929475e+00    1.04540943e+00       13.12048091      8.15267064    -16.89677754  
H     -0.05638606      0.16429347     -1.29859933     -2.54703838e+00   -6.04524968e+00    1.14859397e+00       33.81964993     16.17237302    -39.35937390  
H     -0.02840328      0.07717834     -1.29115237      6.03962548e+00    5.09726741e+00    8.56111970e+00       13.20948310      2.73808540    -16.03413926  
H     -0.15336521      0.26029412     -1.34694691      5.95573495e+00   -1.43721942e+00    9.76409507e+00        3.34677811      1.81849912     -6.23312738  
H     -0.10392786      0.39824871     -1.35761864      3.84297209e+00   -5.51632569e-01   -6.38878157e+00      -22.10734880    -13.44805504     26.07124722  
H     -0.14265691      0.39558047     -1.36233840     -7.36342334e+00   -1.15663529e+01   -4.85368889e+00        8.62234361      7.29702907    -12.27704641  
H     -0.11890455      0.38819202     -1.30429306     -4.72906314e+00    9.16067203e-01   -1.28635039e+01       25.79737127     24.72263576    -27.32815976  
H     -0.25429238      0.39661389     -1.32774551     -3.52130525e-01    9.89533534e-02   -4.11919559e+00       39.25778435     29.00010245    -49.34733819  
H     -0.31314821      0.23900369     -1.39471610      2.92458137e+00   -3.62491664e+00    4.72397004e+00       15.58256321      5.25450390    -27.76756977  
H     -0.39901808      0.27748506     -1.43064946     -6.30047652e-01    1.50455443e+01    2.33178684e+00       18.82648948      5.84076686    -44.73505407  
H     -0.50255408      0.25435452     -1.33079142      2.65948419e+00    3.87442354e+00   -1.70507938e+01       -0.45914337     -0.28222224      1.35238453  
H     -0.49836188      0.26804318     -1.47272710     -1.62847418e+01    8.34809586e+00   -1.19117627e+01       34.49583407     19.92736928    -78.95293493  
H     -0.50407226      0.25880074     -1.38676946     -5.28867595e+00    1.57962058e+01    1.52398728e+01       32.31961874     16.76965855    -62.39672581  
H     -0.41492293      0.16779353     -1.28384249     -1.71560444e+00   -4.45192586e+00    3.07732460e+00       11.46681698      2.30564160    -17.76946127  
H     -0.37608802      0.28897434     -1.30508641     -6.01193708e+00   -4.40031138e+00   -1.23157233e-01        9.84918571      4.04507741    -15.17945575  
H     -0.34245781      0.26804570     -1.23917126      9.68591739e-01    3.99891989e+00    6.06567927e+00       32.29228355     10.35232115    -32.84531337  
H     -0.33511444      0.27246692     -1.14063551     -3.15129851e+00   -1.62415276e+01    6.30996911e+00        2.46973574      1.77257334     -2.34689629  
H     -0.36768515      0.19795258     -1.10999118     -4.98094008e+00   -9.47522878e+00   -2.72438563e+00      -47.75299599    -26.63810785     41.07567461  
H     -0.40452568      0.24518202     -1.07026256     -5.67107689e+00   -5.98480861e+00    2.64598125e+00      -50.25816871    -45.59145516     43.82235054  
H     -0.34059143      0.23959303     -1.10574683      2.99339672e-01    4.02448383e+00    4.42843591e+00       16.09053658     14.80405293    -14.31537813  
H     -0.27901133      0.27845161     -1.08263215      1.33039651e+01   -5.64384813e+00   -5.52972464e+00      -15.20829719    -16.67035891     14.13520152  
H     -0.21767185      0.25489942     -1.00852037      5.68651436e+00    3.94683727e-01   -8.62536185e+00     -101.73054621    -73.48834399     69.47238683  
H     -0.14474558      0.23139639     -1.04860118     -9.09022419e+00    1.21028830e+01    4.60963206e-01      -62.31651143    -42.73073600     54.72118078  
H     -0.06620977      0.23304939     -1.18922379      1.12226663e+01   -2.19600453e+00    2.40686587e+00      -22.53155746    -12.35180167     17.58076148  
H     -0.11477729      0.32614473     -1.13947674      6.22316948e-01   -7.09779838e+00    4.43960042e+00     -111.12130988    -50.83741993     68.29984626  
H     -0.06245860      0.27765146     -1.16339421     -5.07145469e+00   -5.80112375e+00    1.01890087e+01        3.38537506      1.55942452     -2.24429718  
H     -0.19463213      0.19138770     -1.13795889     -8.17350676e+00    1.67483376e+01    1.30875990e+01     -431.93170612   -223.14471942    326.54440264  
H     -0.11562454      0.15156741     -1.19502342      3.90511069e-01    1.54447282e+01   -3.25412038e+00      -50.85935241    -30.97770451     54.72822794  
H     -0.13395667      0.14362929     -1.19138571     -3.10556043e+00   -4.15914316e+00    3.27926003e+00        5.52563530      2.33724436     -4.98195457  
H     -0.12605593      0.09705123     -1.29620458      2.13286554e+00   -5.01492704e+00   -2.08201684e+00        2.93969261      0.92496035     -2.82994726  
H     -0.56873106     -0.06757355     -0.86533062      2.10685870e+00   -3.85685000e-01   -1.34075819e+00       29.35161776     16.53691390    -22.98874122  
H     -0.55803264     -0.05524296     -0.81434253     -1.48055768e+00   -1.62058671e+00    5.38189685e+00       64.99977556     22.66467174    -64.29385923  
H     -0.47877235     -0.09982287     -0.72816847     -6.23186360e+00   -1.03795540e-01   -7.65389335e+00      -13.11143515     -8.15786289     16.92869989  
H     -0.57013297     -0.08186095     -0.69850975      4.81813253e+00    8.69059320e+00   -1.39407571e+01      -33.78515732    -16.19094196     39.47806669  
H     -0.51164670     -0.02346893     -0.70114938     -7.53601798e+00    8.44158377e-01    9.73380899e+00      -13.18233042     -2.74882085     16.11801122  
H     -0.49378139      0.07345617     -0.70441923     -7.09998880e+00    1.11667880e+01    4.94302952e+00       -3.32562897     -1.82825306      6.29062069  
H     -0.52692688      0.14101527     -0.85905572      3.40054778e+00   -6.77670851e+00    1.06270266e+01       22.12164124     13.44366958    -26.04209302  
H     -0.53624163      0.06180269     -0.80001763      1.18214360e+01   -1.57870488e-01   -2.38727728e+00       -8.61599862     -7.30270212     12.29858263  
H     -0.58191746     -0.05618438     -0.81225862     -8.29953332e+00   -3.84161460e+00    3.89891258e+00      -25.77364932    -24.73855745     27.39461070  
H     -0.74187543      0.03576260     -0.71300468      4.27161860e-01   -2.78662881e+00   -2.27054256e+00      -39.21908096    -29.02611576     49.44928933  
H     -0.69128367      0.11070138     -0.71698043     -1.25824190e+00    1.78985129e+00    1.28225062e+00      -15.53590451     -5.27886145     27.88207154  
H     -0.71238667      0.17981713     -0.68324588     -2.00320118e+00   -8.93582121e+00    1.45270120e+01      -18.79197716     -5.85670142     44.81870217  
H     -0.75961372      0.11176694     -0.65174626      2.37325678e+00   -9.92590206e+00   -5.15101219e+00        0.50351366      0.26624591     -1.26398482  
H     -0.86012064      0.05860684     -0.64254595      5.29908240e+00   -1.54726733e+01   -7.00274446e+00      -34.46057431    -19.94361302     79.04827145  
H     -0.89328583      0.05644953     -0.63351519     -1.38581501e+01    1.17971181e+01   -1.24764234e+01      -32.29135598    -16.78248338     62.46805354  
H     -0.82873367      0.08424872     -0.64021219      7.35901777e+00    5.02396906e+00    1.85991420e+01      -11.44970099     -2.31172977     17.80949858  
H     -0.78197996      0.12188435     -0.67752402     -5.84319807e-01   -1.40392214e+01   -1.28184444e+00       -9.84086158     -4.04907566     15.20483245  
H     -0.89822597      0.08979371     -0.67333703     -9.15549631e+00   -3.05909961e+00   -9.40838134e-01      -32.29036020    -10.35391578     32.85799889  
H     -0.81223945     -0.07160968     -0.68141755     -2.30626553e+00   -2.10599507e-02   -4.31812153e+00       -2.45566263     -1.77501510      2.37818777  
H     -0.83923120     -0.06511014     -0.70429508     -9.78383942e+00    3.14603839e+00    4.19783282e+00       47.76644934     26.63865059    -41.05660438  
H     -0.81881869     -0.13066526     -0.70895688      4.83606858e+00   -7.24743096e-01   -7.73488893e+00       50.27860042     45.59280555    -43.79236808  
H     -0.81778792     -0.20023312     -0.67880307     -4.07700270e-01    9.12901748e-01    6.13300275e+00      -16.04943458    -14.80793686     14.40627869  
H     -0.68657247     -0.16764366     -0.70546815     -4.14155854e+00    1.08584347e+01   -9.48732885e+00       15.25416043     16.66572381    -14.03869576  
H     -0.66112701     -0.06546033     -0.70562221      6.24134791e-01    1.90223892e+01    1.01755696e+01      101.78626798     73.49279588    -69.37275806  
H     -0.58368036     -0.06949429     -0.66352616      9.68591210e+00   -4.64871279e+00   -4.80912234e+00       62.38948074     42.72639149    -54.56477824  
H     -0.57907441     -0.04781673     -0.79026454      3.15424284e+00   -3.71295353e+00   -8.38580890e-01       22.56688820     12.34258803    -17.48703108  
H     -0.61269428      0.09831000     -0.83327174      4.04228029e+00   -4.40622936e+00   -1.59876686e+01      111.13942354     50.83728209    -68.27665981  
H     -0.63663564      0.00991842     -0.76795728      6.49889517e+00   -1.29264970e+01   -2.26717942e+00       -3.33575416     -1.57192414      2.37249764  
H     -0.54842076      0.00861141     -0.87048320      7.55806462e+00    6.72486736e+00    5.35450513e+00      431.97475617    223.14039340   -326.46111274  
H     -0.53435741     -0.10347603     -0.74444068      5.47250726e+00    2.71280679e+00   -3.37683559e-01       50.88463466     30.97463434    -54.67872181  
H     -0.66455246     -0.08148667     -0.70948780      1.86078185e+01    7.78828739e-01   -4.91120405e+00       -5.51231409     -2.34118788      5.01911467  
H     -0.64965595     -0.06803641     -0.79003350      6.83107063e+00    5.02243525e+00    1.38257563e+00       -2.93889661     -0.92568401      2.83526093  
H      0.97456744     -0.30192507      2.21547756      1.74159224e+01    7.66320945e+00   -1.37370344e+00        0.00549592     -0.00226679      0.01653681  
H      1.02072523     -0.31762721      2.16129484     -3.11894112e+00   -9.46739250e+00   -4.69102243e+00        0.00397444     -0.00266742      0.01869284  
H      1.01065897     -0.34638435      2.07655307      4.92598315e+00    2.13066981e+01    3.04228680e+00       -0.00904576      0.00519225     -0.03192235  
H      0.82557061     -0.35923124      1.95704346      3.39508518e+00    1.03575719e+01    1.34507496e+00       -0.03449261      0.01856893     -0.11869279  
H      0.90006091     -0.34824464      1.99325900      4.22227512e+00   -8.16974816e+00    8.57164340e+00       -0.02715269      0.01073544     -0.08387196  
H      0.97554564     -0.30826572      1.94043108      8.59024645e-01   -8.70963455e+00    4.83723606e+00       -0.02114914      0.00975394     -0.05749330  
H      1.03384202     -0.21441233      1.89031258     -2.88402951e+00    7.19868931e+00    6.78455867e+00       -0.01429244      0.00438546     -0.02915420  
H      1.03872659     -0.40901331      1.95077734      2.36160022e+00   -6.89045490e-01   -7.70572734e-01       -0.00634500      0.00567304     -0.02153622  
H      0.98522938     -0.39799112      1.89552933     -1.06393439e+01   -6.76750962e-01    1.56625786e+00       -0.02372195      0.01592168     -0.06645094  
H      0.92562065     -0.40640147      1.80784634     -1.47568346e+01   -7.30393445e+00    2.11209990e+00       -0.03870339      0.02601331     -0.10195114  
H      0.84523169     -0.42641583      1.74724072     -5.11569293e+00   -3.61864773e+00   -2.39550974e+00       -0.04665870      0.02435755     -0.11450176  
H      0.92000052     -0.32956887      1.75418186     -9.90659775e+00    4.03053763e-01    8.19998595e+00       -0.03451233      0.01593456     -0.08364809  
H      0.86977383     -0.31536210      1.78621373      6.72941068e+00   -5.31871249e+00    9.09545613e+00       -0.04437029      0.01597634     -0.08839971  
H      0.82133966     -0.26847051      1.75195115      1.31139577e+00    6.97735589e-02    7.50210703e+00       -0.03525976      0.01624374     -0.09533651  
H      0.90364210     -0.30127176      1.80547670     -7.20199569e+00   -9.31497068e+00    9.61761112e+00       -0.02826276      0.01282482     -0.07132773  
H      0.95353679     -0.32220645      1.93984366     -5.04523610e+00   -6.40631474e-01   -8.35877293e+00       -0.01711598      0.00608816     -0.04003731  
H      0.88325509     -0.21713041      2.02525741      6.90618733e+00    3.83904807e+00   -1.94348039e+00       -0.00832414      0.00399826     -0.02537670  
H      0.92527535     -0.03222269      2.15072565      2.95202562e+00    1.61689616e+00    6.39655243e-01       -0.00192336      0.00159463     -0.01268551  
H      0.89846107     -0.08141036      2.10021868     -1.34240436e-01    7.80501468e+00   -4.40095023e+00       -0.01407311      0.00244176     -0.03129147  
H      0.88686640     -0.06526000      2.04961629      6.99670478e+00    1.60829029e+01    4.58566344e+00       -0.01345334     -0.00054274     -0.01907023  
H      0.91396413     -0.07365192      1.99377827      1.40881801e+01   -4.05530075e+00   -6.79745164e-01       -0.02043171     -0.00135039     -0.02998245  
H      0.82721622     -0.04919970      2.02241823      6.73163437e+00    6.59375990e+00   -6.29357335e+00       -0.04110201      0.00388393     -0.09090056  
H      0.85283007     -0.10864863      1.99003752      1.81658978e+00   -6.13670247e+00    4.08513862e+00       -0.04586324      0.00463510     -0.09650576  
H      0.77663877      0.02091033      1.97466155     -5.04105615e+00    1.11989812e+01    2.27512548e+00       -0.05572177     -0.00445189     -0.09962877  
H      0.79280612     -0.07540377      1.97851988      7.60242697e+00    6.14805386e+00   -8.04700269e+00       -0.07296930      0.00434452     -0.15640253  
H      0.76228093     -0.21502720      1.99337974     -6.53321168e+00    7.90156454e+00    2.16717558e+00       -0.03533074      0.00921363     -0.09373040  
H      0.80980267     -0.15979245      1.99493392     -9.99671342e+00   -8.75483843e+00   -1.62940691e+00       -0.01811366      0.00013784     -0.02318646  
H      0.81104475     -0.13325568      1.96304691     -7.99218621e+00   -2.77148781e+00   -8.61677123e+00       -0.04962091      0.01249962     -0.12820047  
H      0.89868046     -0.15561790      2.01128420      9.56444214e+00    9.18207731e+00   -1.44446586e+00       -0.04305004      0.00432602     -0.08328990  
H      0.88063203     -0.27376368      2.01989542      2.40837145e+01    2.67235627e+00   -4.06974922e+00       -0.02528225      0.00307017     -0.04950613  
H      0.87432432     -0.25353781      2.12785737      4.01263100e+00   -1.31904809e+00   -1.81071898e+01       -0.01332121      0.00394352     -0.03716010  
H      0.95996992     -0.27802260      2.13216092      8.93960327e+00    1.03906723e+01    2.18541064e+00       -0.00079599      0.00072366     -0.00531367  
