3
100000  xi=   0.48797365  Mean pot=  -107.49392658  Cent pot=  -109.22182292 kcal/mol
H      0.44441329      2.17409067     -1.65430177       0.19093434
H     -0.19171662      2.18100710     -1.98397660       0.18758647
H     -0.25269666     -4.35509777      3.63827837       0.19079037
3
200000  xi=   0.49278331  Mean pot=  -106.16491137  Cent pot=  -109.39054375 kcal/mol
H     -1.11606886     -2.33663055     -0.53987149       0.13892051
H     -1.78306415     -2.34478470     -0.82596349       0.12642363
H      2.89913300      4.68141525      1.36583498       0.21445050
3
300000  xi=   0.48464691  Mean pot=  -107.06325554  Cent pot=  -108.08991746 kcal/mol
H      1.00032612     -1.51155443     -1.97799398       0.22506096
H      0.88174631     -1.34202772     -2.63287264       0.18559997
H     -1.88207244      2.85358215      4.61086662       0.18215635
3
400000  xi=   0.48002078  Mean pot=  -105.15211584  Cent pot=  -109.48881889 kcal/mol
H     -1.59331138      2.03649473     -1.28273991       0.19511647
H     -1.72380952      1.50711680     -1.77859521       0.24009890
H      3.31712090     -3.54361153      3.06133512       0.15345820
3
500000  xi=   0.48407003  Mean pot=  -106.95630350  Cent pot=  -109.49246937 kcal/mol
H     -1.49176948     -2.43196508      1.59896469       0.13617077
H     -1.30622998     -1.81245775      1.22856772       0.26330516
H      2.79799946      4.24442282     -2.82753242       0.20515126
3
600000  xi=   0.48946003  Mean pot=  -106.07998416  Cent pot=  -109.46785051 kcal/mol
H      1.44417479     -2.06269664      1.22322637       0.17050792
H      1.91039253     -2.08621908      0.65783937       0.21100351
H     -3.35456732      4.14891572     -1.88106574       0.22363756
3
700000  xi=   0.48507343  Mean pot=  -106.65713623  Cent pot=  -109.32093315 kcal/mol
H      2.27717437      0.10917132      1.40412277       0.23019110
H      2.55929951      0.74764129      1.58633090       0.16850505
H     -4.83647387     -0.85681261     -2.99045367       0.22852652
3
800000  xi=   0.48629089  Mean pot=  -107.94155482  Cent pot=  -108.95955601 kcal/mol
H      1.03728085      2.68711342      1.30808655       0.16076462
H      1.18309413      2.15965937      0.86055706       0.24478782
H     -2.22037497     -4.84677278     -2.16864361       0.18532848
3
900000  xi=   0.49522612  Mean pot=  -105.29521382  Cent pot=  -109.33239735 kcal/mol
H      2.37649146     -0.53782947      1.51162815       0.13901446
H      1.88379076     -0.99638117      1.77307531       0.15588220
H     -4.26028222      1.53421064     -3.28470345       0.25739639
3
1000000  xi=   0.48740194  Mean pot=  -106.42718763  Cent pot=  -109.34014377 kcal/mol
H      2.03724317     -0.28890151      1.50187809       0.16051038
H      2.41159304     -0.22262964      2.16175944       0.15667399
H     -4.44883621      0.51153115     -3.66363752       0.17823833
3
1100000  xi=   0.50419571  Mean pot=  -106.34928153  Cent pot=  -107.69697474 kcal/mol
H      1.45196893     -1.18998917      2.17153193       0.16797166
H      1.07825887     -0.65360479      2.35896205       0.23410922
H     -2.53022780      1.84359397     -4.53049397       0.18840288
3
1200000  xi=   0.48838770  Mean pot=  -106.19053161  Cent pot=  -107.70023695 kcal/mol
H      2.35642012      1.35873042      0.52582784       0.19849738
H      2.44324556      1.61039449     -0.10002770       0.24221338
H     -4.79966567     -2.96912491     -0.42580014       0.22454531
3
1300000  xi=   0.48405248  Mean pot=  -104.65057796  Cent pot=  -109.22386097 kcal/mol
H     -0.22367442      2.91893824      1.51712000       0.15251102
H     -0.24816347      2.22435282      1.19016484       0.17815627
H      0.47183789     -5.14329106     -2.70728484       0.17173078
3
1400000  xi=   0.48253187  Mean pot=  -107.20044141  Cent pot=  -109.39641584 kcal/mol
H     -1.36179260     -2.36605540      1.09737762       0.17478650
H     -1.29386322     -2.48597957      0.38433543       0.19361401
H      2.65565582      4.85203497     -1.48171305       0.28823337
3
1500000  xi=   0.47453939  Mean pot=  -106.12650872  Cent pot=  -109.35094050 kcal/mol
H      2.65889569      0.79282136     -0.69957880       0.15185025
H      2.89410200      0.07941986     -0.82051767       0.18337543
H     -5.55299769     -0.87224121      1.52009647       0.18111632
3
1600000  xi=   0.48666915  Mean pot=  -105.44660507  Cent pot=  -108.96387905 kcal/mol
H      1.81719807      0.87785126     -2.03962335       0.24991941
H      1.15282724      0.99474923     -2.42918011       0.20923119
H     -2.97002531     -1.87260049      4.46880345       0.17174757
3
1700000  xi=   0.48326479  Mean pot=  -106.18474926  Cent pot=  -109.35113059 kcal/mol
H      2.34712634      1.39563027      0.91713890       0.16877239
H      1.85852541      1.97642455      0.97023058       0.17226543
H     -4.20565176     -3.37205483     -1.88736948       0.16718103
3
1800000  xi=   0.48660702  Mean pot=  -106.32685130  Cent pot=  -109.25958283 kcal/mol
H      0.57022002      0.41779193      2.82367456       0.16438517
H      1.26417572      0.42324294      2.49882092       0.21434677
H     -1.83439573     -0.84103487     -5.32249548       0.21146386
3
1900000  xi=   0.48804553  Mean pot=  -106.35423737  Cent pot=  -109.32311282 kcal/mol
H      0.92153728      2.67396356     -1.04150869       0.13793943
H      1.14562752      2.04734357     -1.41398074       0.17105349
H     -2.06716480     -4.72130714      2.45548943       0.20424554
3
2000000  xi=   0.48610062  Mean pot=  -105.74470481  Cent pot=  -108.41276199 kcal/mol
H     -3.05497210     -0.77435731      0.67611111       0.13440960
H     -2.55027961     -0.20960266      0.43187804       0.16889947
H      5.60525171      0.98395997     -1.10798915       0.19765844
