3
100000  xi=   0.21604401  Mean pot=  -104.90105712  Cent pot=  -108.80199459 kcal/mol
H      2.86809393      1.96883851      1.89300930       0.18885607
H      2.84883991      2.66009024      2.26349039       0.19939007
H     -5.71693384     -4.62892875     -4.15649969       0.19079103
3
200000  xi=   0.22037841  Mean pot=  -107.41115748  Cent pot=  -109.33804753 kcal/mol
H     -0.78662142      1.17977881     -3.61812281       0.13862525
H     -1.21164525      1.64267286     -4.04853032       0.18050581
H      1.99826668     -2.82245167      7.66665313       0.18240305
3
300000  xi=   0.21369632  Mean pot=  -106.49539760  Cent pot=  -109.49695234 kcal/mol
H      2.71353496      3.55253488      0.63459714       0.16945322
H      2.22806436      3.12584977      0.99543299       0.17221543
H     -4.94159932     -6.67838465     -1.63003013       0.21238476
3
400000  xi=   0.21925009  Mean pot=  -106.47585736  Cent pot=  -108.82594796 kcal/mol
H     -2.39867732     -3.36824037      0.39073854       0.16273676
H     -2.48195979     -3.27266888      1.08225107       0.16669437
H      4.88063711      6.64090925     -1.47298961       0.13761896
3
500000  xi=   0.21759880  Mean pot=  -105.71502200  Cent pot=  -109.16038420 kcal/mol
H      0.85027359     -0.09187268     -3.77533017       0.16017427
H      0.81721621      0.16462910     -4.50173674       0.17720831
H     -1.66748980     -0.07275642      8.27706691       0.19994706
3
600000  xi=   0.21013364  Mean pot=  -107.09588863  Cent pot=  -109.32517091 kcal/mol
H     -4.28601045      1.16029279     -0.23082789       0.18949894
H     -3.72998213      1.60623703     -0.11788686       0.17323834
H      8.01599258     -2.76652982      0.34871475       0.19678759
3
700000  xi=   0.21782476  Mean pot=  -105.05769070  Cent pot=  -108.74999605 kcal/mol
H     -4.06733102     -0.52847581     -0.71312249       0.20383958
H     -3.94900137     -1.01077752     -1.20788720       0.22556474
H      8.01633239      1.53925333      1.92100969       0.19287169
3
800000  xi=   0.21724259  Mean pot=  -107.39738739  Cent pot=  -109.48213723 kcal/mol
H      1.45762367     -0.44777776      3.93620160       0.16843744
H      1.83901683     -1.01957273      3.64156996       0.19146200
H     -3.29664050      1.46735049     -7.57777156       0.25325273
3
900000  xi=   0.21797503  Mean pot=  -107.26369627  Cent pot=  -107.00744563 kcal/mol
H      0.68562297     -2.60905784     -3.17948835       0.27705714
H      1.34842787     -2.54685664     -3.10319488       0.19433944
H     -2.03405084      5.15591448      6.28268323       0.22452905
3
1000000  xi=   0.22079783  Mean pot=  -107.15394705  Cent pot=  -109.44568057 kcal/mol
H      1.13071703      0.61127008     -4.37760462       0.21656762
H      1.07497965      0.47863849     -3.66136096       0.12156747
H     -2.20569668     -1.08990857      8.03896558       0.20412724
3
1100000  xi=   0.22528853  Mean pot=  -106.21998745  Cent pot=  -107.46955716 kcal/mol
H      2.51153608     -3.02641844      0.00866887       0.24583670
H      2.62272360     -3.52589763      0.45127391       0.21703749
H     -5.13425969      6.55231607     -0.45994278       0.25715358
3
1200000  xi=   0.21902890  Mean pot=  -106.08671966  Cent pot=  -108.59435624 kcal/mol
H     -4.31362379     -0.47785629     -0.68591336       0.17022122
H     -3.93335460     -0.80877123     -0.20431438       0.17156008
H      8.24697839      1.28662753      0.89022775       0.23498690
3
1300000  xi=   0.21853163  Mean pot=  -104.23786936  Cent pot=  -109.17469451 kcal/mol
H      3.33594041     -2.25260738      1.98961584       0.16738673
H      2.59494653     -2.08867790      2.12229667       0.15428143
H     -5.93088694      4.34128528     -4.11191251       0.18975527
3
1400000  xi=   0.22100319  Mean pot=  -106.85644789  Cent pot=  -109.49655668 kcal/mol
H      3.35442889      0.32804088      2.25218463       0.13616627
H      3.20594011      0.08277790      2.93800110       0.17716717
H     -6.56036901     -0.41081878     -5.19018573       0.19855553
3
1500000  xi=   0.20995606  Mean pot=  -105.30466153  Cent pot=  -109.24346526 kcal/mol
H     -4.04512900      1.96270998     -0.88857114       0.15414173
H     -3.53656672      1.45674279     -0.90142683       0.16516418
H      7.58169572     -3.41945277      1.78999797       0.22145561
3
1600000  xi=   0.21930864  Mean pot=  -107.34689018  Cent pot=  -108.91812008 kcal/mol
H     -2.05328024     -2.88359343      1.97894235       0.18030807
H     -2.40155571     -2.61020250      2.52843138       0.18504843
H      4.45483595      5.49379593     -4.50737373       0.23223951
3
1700000  xi=   0.21441372  Mean pot=  -107.88572366  Cent pot=  -109.48600509 kcal/mol
H     -1.32517869      3.32365032      1.71014445       0.16955313
H     -1.99205426      3.56254955      1.91111073       0.17232881
H      3.31723294     -6.88619987     -3.62125518       0.17702801
3
1800000  xi=   0.22469993  Mean pot=  -103.82404296  Cent pot=  -107.30115964 kcal/mol
H      2.39754143     -2.50958475      2.28766217       0.17133144
H      2.48842925     -1.89584141      2.82487010       0.16516165
H     -4.88597068      4.40542615     -5.11253228       0.18215866
3
1900000  xi=   0.22886951  Mean pot=  -105.76667280  Cent pot=  -109.28422879 kcal/mol
H     -0.96306430     -3.18293819     -1.90395312       0.20973044
H     -1.10246817     -3.93499363     -1.89672048       0.19314255
H      2.06553247      7.11793182      3.80067360       0.16733673
3
2000000  xi=   0.22282776  Mean pot=  -104.26157505  Cent pot=  -107.39219147 kcal/mol
H     -1.11737791      2.47719355      2.74571513       0.17779056
H     -0.86072871      2.88023377      3.41075650       0.13896994
H      1.97810661     -5.35742732     -6.15647163       0.19705680
