3
100000  xi=   0.15167587  Mean pot=  -105.09049004  Cent pot=  -109.47176993 kcal/mol
H     -1.83379655      4.08726149      0.53995936       0.20443173
H     -2.47661173      3.77111903      0.76078817       0.23210728
H      4.31040828     -7.85838052     -1.30074753       0.19078762
3
200000  xi=   0.14393428  Mean pot=  -106.33261272  Cent pot=  -109.21197104 kcal/mol
H      2.93206378     -3.25145985     -2.22680924       0.19524422
H      2.47299941     -2.63579047     -2.25917454       0.22751936
H     -5.40506319      5.88725032      4.48598378       0.14267743
3
300000  xi=   0.14288559  Mean pot=  -105.13163755  Cent pot=  -109.07338503 kcal/mol
H      1.13339147     -0.60500187     -4.76220845       0.20525976
H      0.84647463     -0.60048252     -4.11202327       0.17296952
H     -1.97986611      1.20548439      8.87423171       0.23136205
3
400000  xi=   0.15740237  Mean pot=  -107.16801021  Cent pot=  -109.16984665 kcal/mol
H      3.02009970     -2.30593638      2.42413109       0.21727568
H      3.49323642     -2.11304903      1.92493737       0.17021318
H     -6.51333612      4.41898541     -4.34906846       0.19595660
3
500000  xi=   0.16389013  Mean pot=  -107.10410202  Cent pot=  -109.38142743 kcal/mol
H     -1.11117738      1.31437621     -3.85465691       0.16147200
H     -1.21553497      0.97417509     -4.48651316       0.14854810
H      2.32671236     -2.28855130      8.34117007       0.16979065
3
600000  xi=   0.15066169  Mean pot=  -107.22995169  Cent pot=  -109.49484597 kcal/mol
H     -3.70786573      0.36238308     -3.15098846       0.18612748
H     -3.17663357      0.00420253     -2.78275379       0.14444673
H      6.88449930     -0.36658561      5.93374225       0.20800374
3
700000  xi=   0.15006564  Mean pot=  -105.44108029  Cent pot=  -109.44587526 kcal/mol
H     -4.08833571     -1.61711792     -0.90757324       0.20119426
H     -3.96393048     -2.27735687     -0.62062162       0.21362546
H      8.05226618      3.89447479      1.52819486       0.19149785
3
800000  xi=   0.15174615  Mean pot=  -107.56213621  Cent pot=  -109.12282749 kcal/mol
H      1.37417850      3.94649839     -0.81864288       0.18392733
H      1.95941214      4.34873006     -0.76072198       0.15907869
H     -3.33359064     -8.29522845      1.57936485       0.21727167
3
900000  xi=   0.14949479  Mean pot=  -107.13942558  Cent pot=  -107.71945031 kcal/mol
H      0.81135593      3.30899730      3.34867914       0.21254761
H      0.25717999      3.09042040      3.01988925       0.20509607
H     -1.06853592     -6.39941769     -6.36856839       0.17029407
3
1000000  xi=   0.15129130  Mean pot=  -106.16893314  Cent pot=  -109.48180642 kcal/mol
H      0.18654347      4.74916392      1.08418585       0.24262450
H      0.03870908      4.17609083      0.62696923       0.18391017
H     -0.22525255     -8.92525475     -1.71115508       0.29776910
3
1100000  xi=   0.15075296  Mean pot=  -105.82386157  Cent pot=  -109.30856965 kcal/mol
H      3.45008770      0.42540192      3.03114639       0.24144825
H      3.56358707     -0.20998084      2.71040768       0.13680370
H     -7.01367477     -0.21542108     -5.74155408       0.25968725
3
1200000  xi=   0.15978241  Mean pot=  -105.54885882  Cent pot=  -109.18312187 kcal/mol
H     -1.80161357     -3.84864372      1.90204955       0.18386618
H     -2.18486239     -3.24520965      1.90662692       0.21307039
H      3.98647595      7.09385337     -3.80867647       0.17139161
3
1300000  xi=   0.14735503  Mean pot=  -107.20166246  Cent pot=  -109.47669930 kcal/mol
H      2.31418660      2.87695517     -2.57003590       0.14498185
H      2.30090007      2.45448685     -3.18814798       0.23121796
H     -4.61508667     -5.33144203      5.75818388       0.17912176
3
1400000  xi=   0.15368556  Mean pot=  -106.60436845  Cent pot=  -109.39092826 kcal/mol
H      3.84569940     -1.09728167      1.73873432       0.20745118
H      4.43119160     -1.00235240      1.26681998       0.17349770
H     -8.27689101      2.09963407     -3.00555430       0.20905069
3
1500000  xi=   0.15010716  Mean pot=  -106.74283295  Cent pot=  -104.74661726 kcal/mol
H     -1.83026227      1.58570023     -3.68498782       0.15130657
H     -1.84900561      2.23099737     -3.67797346       0.19054740
H      3.67926788     -3.81669760      7.36296128       0.17562785
3
1600000  xi=   0.15586133  Mean pot=  -106.86368224  Cent pot=  -108.95982271 kcal/mol
H     -3.07773792      1.65973387      2.77390594       0.12390872
H     -2.64461929      2.27161208      2.98614576       0.12753400
H      5.72235722     -3.93134595     -5.76005170       0.20050750
3
1700000  xi=   0.14861946  Mean pot=  -106.81386964  Cent pot=  -109.11348642 kcal/mol
H      1.22419790      2.50314586      3.50872867       0.21591504
H      0.58586426      2.77908476      3.66213623       0.15831947
H     -1.81006216     -5.28223062     -7.17086490       0.15374288
3
1800000  xi=   0.14664279  Mean pot=  -107.83099501  Cent pot=  -109.33540384 kcal/mol
H     -4.57814378     -0.46248052      0.05634838       0.19891538
H     -4.48773542     -0.18186454     -0.60298497       0.14492540
H      9.06587920      0.64434506      0.54663660       0.19889690
3
1900000  xi=   0.14244711  Mean pot=  -106.39498223  Cent pot=  -109.25751799 kcal/mol
H      3.21472232      3.10812669      1.68572696       0.19731321
H      2.60262436      3.28385012      1.35375184       0.21187194
H     -5.81734668     -6.39197681     -3.03947879       0.18236897
3
2000000  xi=   0.15477083  Mean pot=  -106.27879728  Cent pot=  -109.27281950 kcal/mol
H     -0.40418214     -0.49600223     -4.63539111       0.18090544
H     -0.68161947     -1.06272128     -4.20192338       0.16560655
H      1.08580161      1.55872351      8.83731448       0.22838964
