3
100000  xi=   1.16802176  Mean pot=  -104.52080749  Cent pot=  -109.24706596 kcal/mol
H     -1.24001987     -0.84217194     -1.43786493       0.31559043
H      0.38839706      0.18640569      0.52152899       0.19060819
H      0.85162281      0.65576625      0.91633594       0.15860611
3
200000  xi=   1.17841022  Mean pot=  -104.81008873  Cent pot=  -107.36191442 kcal/mol
H     -0.04905794     -0.04371867      1.88726597       0.21707307
H      0.06704238     -0.31322007     -0.94862531       0.16129358
H     -0.01798444      0.35693874     -0.93864065       0.14329098
3
300000  xi=   1.17657429  Mean pot=  -107.46905280  Cent pot=  -109.37712631 kcal/mol
H      0.55259399      0.37639085     -1.77841668       0.24974779
H      0.06460279     -0.15320653      1.04434259       0.16967646
H     -0.61719678     -0.22318432      0.73407409       0.15198905
3
400000  xi=   1.16642385  Mean pot=  -107.45396010  Cent pot=  -109.44602497 kcal/mol
H     -0.24533051     -1.83848249      0.58804858       0.17541222
H      0.20609732      0.81012592      0.04657139       0.20214911
H      0.03923319      1.02835656     -0.63461997       0.14910910
3
500000  xi=   1.17457928  Mean pot=  -105.22157273  Cent pot=  -109.02325011 kcal/mol
H     -0.13966898     -0.92853701      1.65975360       0.22080992
H     -0.28283467      0.42048731     -0.82787924       0.16965760
H      0.42250366      0.50804969     -0.83187436       0.15929176
3
600000  xi=   1.17331857  Mean pot=  -107.14582997  Cent pot=  -108.97448614 kcal/mol
H      0.71153044      1.69285408      0.85345758       0.18990611
H     -0.38838016     -0.49437991     -0.42324491       0.15596668
H     -0.32315028     -1.19847417     -0.43021266       0.22970502
3
700000  xi=   1.17332861  Mean pot=  -105.36966637  Cent pot=  -109.50936989 kcal/mol
H      0.47629068     -0.23638454      2.00791185       0.17832490
H     -0.27337184      0.03826015     -0.64690851       0.24058923
H     -0.20291884      0.19812439     -1.36100334       0.27735406
3
800000  xi=   1.17139639  Mean pot=  -106.58904752  Cent pot=  -103.83706399 kcal/mol
H      1.72512071      0.75762163     -0.34950852       0.19763835
H     -0.78699272     -0.07097890      0.21103469       0.23860234
H     -0.93812799     -0.68664273      0.13847384       0.20548399
3
900000  xi=   1.17104879  Mean pot=  -106.62752680  Cent pot=  -108.86315453 kcal/mol
H      1.14200139      1.61837764      0.27748532       0.24807796
H     -0.28783742     -0.81896484      0.13088396       0.20095290
H     -0.85416397     -0.79941280     -0.40836928       0.18055220
3
1000000  xi=   1.17176404  Mean pot=  -105.40553966  Cent pot=  -107.73708913 kcal/mol
H      1.84155686     -1.04997305      0.28331513       0.22402520
H     -0.60944930      0.26498166     -0.16761288       0.16437477
H     -1.23210756      0.78499140     -0.11570225       0.13332777
3
1100000  xi=   1.17936200  Mean pot=  -106.47075517  Cent pot=  -106.71345525 kcal/mol
H     -1.58588122     -1.12707662      0.06005083       0.16860754
H      0.68631015      0.49934336     -0.33915487       0.17797969
H      0.89957107      0.62773327      0.27910403       0.17256637
3
1200000  xi=   1.16397880  Mean pot=  -107.44765911  Cent pot=  -109.38568736 kcal/mol
H     -1.29871849     -0.24340881      1.39957834       0.18609872
H      0.29235926      0.10160741     -0.77050262       0.18585882
H      1.00635923      0.14180140     -0.62907572       0.16428572
3
1300000  xi=   1.15891062  Mean pot=  -106.75931036  Cent pot=  -108.81679856 kcal/mol
H     -0.66018156      1.12743220     -0.97732925       0.22867382
H      0.42745008     -0.81091869      0.73409038       0.16656759
H      0.23273148     -0.31651351      0.24323886       0.19594300
3
1400000  xi=   1.17694857  Mean pot=  -105.30485468  Cent pot=  -108.13598281 kcal/mol
H      1.43866009     -1.07219751     -0.94394742       0.15446315
H     -0.42519270      0.42517756      0.72149024       0.16111535
H     -1.01346740      0.64701995      0.22245718       0.17507587
3
1500000  xi=   1.17752352  Mean pot=  -106.44301113  Cent pot=  -109.26687195 kcal/mol
H     -0.42491458      1.94631110      0.49191716       0.19846283
H      0.06335734     -0.67957217     -0.38868731       0.21417531
H      0.36155724     -1.26673893     -0.10322985       0.17576193
3
1600000  xi=   1.17602345  Mean pot=  -106.51850754  Cent pot=  -109.43633427 kcal/mol
H      1.19228097     -0.13034076      1.65497096       0.17256036
H     -0.45686133     -0.24091408     -0.65549842       0.22989759
H     -0.73541964      0.37125484     -0.99947254       0.15872243
3
1700000  xi=   1.16835970  Mean pot=  -106.81680379  Cent pot=  -109.18912193 kcal/mol
H      0.59017698      1.34986150     -0.92745057       0.18068374
H     -0.16938575     -1.01047590      0.57840757       0.15741492
H     -0.42079123     -0.33938560      0.34904300       0.18932410
3
1800000  xi=   1.17066770  Mean pot=  -106.20810037  Cent pot=  -108.62433218 kcal/mol
H      1.50251237      0.37607951     -1.05412282       0.22717182
H     -0.91550739     -0.45669824      0.29144215       0.16611788
H     -0.58700497      0.08061873      0.76268067       0.14170320
3
1900000  xi=   1.16528004  Mean pot=  -105.77959167  Cent pot=  -108.75351154 kcal/mol
H      1.63513414     -0.28872903     -0.27635701       0.17124368
H     -1.11297218      0.34409408      0.12969966       0.14149116
H     -0.52216196     -0.05536505      0.14665735       0.20420220
3
2000000  xi=   1.16700938  Mean pot=  -106.01614547  Cent pot=  -108.90281828 kcal/mol
H     -1.27984974      1.09100258     -0.49758148       0.22861488
H      0.59000734     -0.89736467      0.21392100       0.16280249
H      0.68984240     -0.19363792      0.28366048       0.16214608
