96
100000  xi=   0.38951071  Mean pot=  -106.24038521  Cent pot=  -109.47355187 kcal/mol
H      0.85406373      3.17591129     -1.85031972     -1.97558753e+00   -1.18453725e+00   -8.42562888e+00        8.44305329     21.05909348    -20.06214896  
H      0.84478240      3.01420860     -1.88596023     -1.10480730e+01   -1.80199414e+00    9.61051042e+00        2.56510734      3.61898838     -7.20259520  
H      0.95566006      2.97456585     -1.87631464     -1.97066129e+01   -1.08257311e+00   -1.86626282e+00        8.01913574      5.72519169    -17.79451901  
H      0.86739567      2.97899136     -1.87082335     -1.68092331e+00   -4.67095205e+00   -4.67223045e-01        5.63862195      5.26308830    -16.59821150  
H      0.92267892      2.98322112     -1.88077338     -6.03280069e+00    1.52858345e+00    7.79554500e+00       14.51563932     14.35285133    -40.18677194  
H      0.93413780      3.16496536     -1.94699121      4.98191266e+00    7.39148526e+00    1.17324033e+01       37.99680034     33.40692686    -77.40627597  
H      0.88965820      3.25954268     -1.95909713     -1.34739152e+00   -7.40891091e-01    7.93667657e+00       11.38802129     13.05198196    -26.28479664  
H      0.89806998      3.21737489     -1.89698815      4.09345932e+00   -8.26551415e+00    1.16562168e+01        4.21879185      3.90215972     -7.05467073  
H      0.88908893      3.13821380     -1.79476137     -9.64872456e-01    2.47870930e+00   -4.69636753e+00      -81.31015292    -67.17027254     98.71507102  
H      0.75720094      3.21533202     -1.75565804      8.98927652e+00   -3.23925812e+00   -7.38926470e+00      -44.12132147    -39.47837656     48.93065734  
H      0.72145514      3.13253428     -1.81679726      7.14405905e+00   -1.76081513e+00    1.41847057e+00      -66.60877679    -54.76837091     99.27526117  
H      0.64198132      3.19462587     -1.81305112     -7.34879745e+00    4.37564272e-01    4.22902862e+00      -75.39716748    -78.55861405    132.33824999  
H      0.62492636      3.09716273     -1.81508701      1.32760384e+00    6.29383111e+00   -9.68407285e+00       -0.60430777     -0.27718925      0.95131579  
H      0.47339251      3.07690820     -1.93389170     -6.34653197e+00   -8.93461535e+00   -1.65918480e+00        2.47417089      2.43846255     -9.88787503  
H      0.48675637      3.16461847     -1.89356803     -1.07698998e+01    1.47540265e+01   -5.78350097e+00       18.17931707     26.78719154    -53.73224785  
H      0.48924117      3.19109160     -1.88254761     -7.44821857e-01    6.35656881e+00    1.06490933e+01        9.23922851     45.68851481    -76.07453353  
H      0.43467299      3.30905569     -1.88177982      1.13372512e+00   -1.43793070e+01   -6.30173325e-02       -9.21274090     52.26926613    -69.50889537  
H      0.48458678      3.16671517     -1.86908663     -1.32023114e+00   -7.74881070e+00   -4.50319494e+00        6.27498047     23.59217953    -56.97692093  
H      0.53686249      3.08641569     -1.76728771      7.95458841e+00   -5.05260744e+00    1.77228919e+00       -0.03273908     -0.10773107      0.22563141  
H      0.50204264      3.08146985     -1.76449526     -1.10457748e+01    4.26965838e+00   -2.39407525e+00        2.16347838      9.25622594    -16.46289421  
H      0.57159677      3.08316266     -1.73304273      6.52244592e+00    1.27321185e+00    5.43366266e+00        9.61090965     15.67895745    -25.13295957  
H      0.56859136      3.06934782     -1.66363634      5.25596502e+00    7.19040221e+00    1.75037505e+01      -15.99551968    -40.92617644     45.43473505  
H      0.70525512      3.13024482     -1.74209858      4.83458819e-01   -4.53996368e+00   -9.23613945e+00       18.40456518     35.66062535    -46.47395827  
H      0.74910359      3.12059638     -1.75139835      2.14425076e-01    7.85877648e+00    1.09322226e+01       20.46869518     31.54407064    -59.01794937  
H      0.92523080      3.09817499     -1.68981719      8.66524284e+00    1.62234730e+01    7.24796478e-01       33.29544443     27.07024433    -44.21743421  
H      0.98089550      3.12246841     -1.79836222      7.24616313e-02    1.72163754e+00   -1.43639734e+00       33.58846668     27.57650452    -38.55263839  
H      0.94504263      3.28021078     -1.74968352     -7.25872975e+00   -6.54823216e+00   -8.32829501e+00       32.46693451     31.03841218    -30.56329043  
H      0.82627459      3.19725507     -1.70120502     -4.48437191e+00   -2.90836237e+00   -4.67039387e+00      -38.79532664    -75.66943552     69.37910448  
H      0.88583546      3.10310446     -1.75075654      8.06597892e-01    1.23964489e+01    8.15304668e+00      -37.63942010    -33.16273034     41.73169570  
H      0.88039316      2.98569891     -1.73953846      6.25603965e+00    9.37175929e+00   -6.90470081e+00      -72.73331383    -66.36320466    121.54468090  
H      0.81144909      3.00965817     -1.79648023      1.01524242e+01   -5.86356340e+00    1.55972436e+00        5.75952213      5.77205023    -12.28958690  
H      0.79655635      3.02527728     -1.88779481      1.16609513e+01   -4.36162168e-01   -5.67522356e+00        6.61769832      9.75329733    -17.10467835  
H      0.63568105      2.63120996     -1.33140484      8.57178764e+00    2.13551556e+00   -2.47782189e+00       -8.44304841    -21.05906936     20.06213631  
H      0.61668789      2.69240056     -1.24549097     -8.78359134e+00   -2.64945463e+00   -4.47166594e+00       -2.56510301     -3.61896608      7.20258399  
H      0.65273240      2.75829330     -1.20411600      5.87047271e+00   -1.37380234e+00   -6.19949827e+00       -8.01913153     -5.72517084     17.79450870  
H      0.63157493      2.75887634     -1.17664620      4.22685773e+00    9.04114806e+00   -1.37111555e+01       -5.63861728     -5.26306707     16.59820137  
H      0.66220367      2.72566700     -1.15964362      4.55573952e+00    6.30736085e+00    9.10531863e+00      -14.51563461    -14.35282941     40.18676147  
H      0.54436468      2.82227540     -1.15295367     -5.85746584e+00    4.19903591e+00    1.60457075e+00      -37.99679610    -33.40690474     77.40626559  
H      0.60557560      2.93395128     -1.30340345      8.61909403e+00   -4.86925896e+00   -5.14601895e+00      -11.38801713    -13.05195998     26.28478624  
H      0.54893303      2.89444152     -1.31316072      5.84862370e-01   -1.64955714e+00   -2.01654788e+01       -4.21878829     -3.90213992      7.05466128  
H      0.53731355      2.84761237     -1.36768640     -1.19358268e+01   -3.77331313e+00   -5.62035486e+00       81.31015672     67.17029337    -98.71508097  
H      0.37289493      2.87146707     -1.32946171     -8.79447349e+00    2.36396060e+00   -2.18766501e-01       44.12132511     39.47839823    -48.93066734  
H      0.40108119      2.86911016     -1.33930452     -5.24486600e+00    1.53459829e+00    3.30664771e+00       66.60878068     54.76839205    -99.27527081  
H      0.37340344      2.91478638     -1.34163916      4.73459194e+00    7.53586661e+00    1.12692524e+01       75.39717132     78.55863648   -132.33826020  
H      0.23950250      2.92037185     -1.20834326      4.05506481e+00   -1.06302277e+01   -1.37887886e+01        0.60431150      0.27721095     -0.95132576  
H      0.29519579      2.90128340     -1.22173920     -4.63563534e+00    3.60918989e+00   -1.84807356e+01       -2.47416680     -2.43844020      9.88786474  
H      0.24148588      2.80321279     -1.16862691     -8.12089232e+00    1.45426314e+01    7.21473873e+00      -18.17931300    -26.78716665     53.73223673  
H      0.39266397      2.71351183     -1.08734436      6.48576544e+00   -3.95671800e+00    9.66065053e+00       -9.23922389    -45.68848911     76.07452186  
H      0.53208711      2.75636832     -1.14680325     -7.60420192e+00   -2.05883534e+00   -2.86793461e+00        9.21274616    -52.26924124     69.50888353  
H      0.39909099      2.84527479     -1.09278362     -6.61767791e+00    1.03867972e+01    8.23804578e+00       -6.27497577    -23.59215433     56.97690858  
H      0.44061724      2.76972062     -1.10396204     -1.34439677e+01   -9.26624022e+00   -1.06716179e+00        0.03274424      0.10775758     -0.22564414  
H      0.41481329      2.70826773     -1.10072790     -3.38487598e+00   -8.83782204e+00    2.35709519e+00       -2.16347269     -9.25619679     16.46288042  
H      0.32942199      2.68808552     -1.09974482     -7.36923677e+00   -5.99432801e+00   -1.17402460e+01       -9.61090431    -15.67892649     25.13294513  
H      0.39660075      2.62929237     -1.17510279     -5.07210479e+00   -4.37480616e-01   -8.36321879e+00       15.99552624     40.92621010    -45.43475134  
H      0.45252617      2.64055790     -1.10392460      8.77743773e+00    1.15800872e+01   -6.92277078e+00      -18.40455904    -35.66059398     46.47394354  
H      0.49606813      2.73064625     -1.02181431      6.23053579e+00    1.35525725e+01   -1.07188037e+01      -20.46868871    -31.54404019     59.01793537  
H      0.46933589      2.72751798     -1.08437387     -7.83380590e+00   -7.10265640e+00   -6.35694126e+00      -33.29543891    -27.07021657     44.21742111  
H      0.49781517      2.72585402     -1.24388553      1.42935378e+01   -5.46498674e+00    1.66280148e+00      -33.58846176    -27.57648054     38.55262664  
H      0.45064556      2.80756675     -1.28427456      1.22401063e+01   -3.33407339e+00   -4.69179727e+00      -32.46692989    -31.03838799     30.56327844  
H      0.59792065      2.75185578     -1.29283132      5.89013845e+00   -1.37976171e+01    1.13720754e+01       38.79533255     75.66946327    -69.37911809  
H      0.49476249      2.75854430     -1.31716492     -1.16558817e+00    1.28955612e+01    8.68870182e+00       37.63942471     33.16275512    -41.73170809  
H      0.59286725      2.72335504     -1.25905375     -3.50548599e-01    1.07817389e+01    1.80218189e+00       72.73331858     66.36322794   -121.54469228  
H      0.51444881      2.71201167     -1.16274521      5.57221241e+00    4.55052324e+00   -4.73887704e+00       -5.75951749     -5.77202691     12.28957541  
H      0.55156997      2.66421124     -1.25458173     -2.56834975e+00    2.21810675e+00    3.37166282e+00       -6.61769372     -9.75327357     17.10466644  
H     -1.14961250     -5.96089995      3.27258126      1.73399490e+01    5.46825044e+00    1.90364755e-01       -0.00000489     -0.00002412      0.00001265  
H     -1.10397413     -5.97669685      3.21602413     -3.30607990e+00   -1.13478100e+01   -2.82625304e+00       -0.00000434     -0.00002230      0.00001122  
H     -1.11352722     -6.00408234      3.13011830      4.86483234e+00    1.91660350e+01    4.50064814e+00       -0.00000420     -0.00002084      0.00001031  
H     -1.29994454     -6.01463399      3.00736655      3.12244696e+00    8.62992076e+00    2.73451660e+00       -0.00000467     -0.00002123      0.00001012  
H     -1.22488251     -6.00340715      3.04144899      4.20388063e+00   -1.00656644e+01    9.95925934e+00       -0.00000471     -0.00002191      0.00001047  
H     -1.15005987     -5.96181556      2.98892293      5.86564013e-01   -1.05654641e+01    6.21488497e+00       -0.00000424     -0.00002212      0.00001037  
H     -1.09230812     -5.86855979      2.93620856     -2.90689641e+00    5.47337685e+00    8.22612597e+00       -0.00000416     -0.00002198      0.00001040  
H     -1.08711610     -6.06352442      2.99854105      2.13621142e+00   -2.49147804e+00    5.00235847e-01       -0.00000356     -0.00001980      0.00000945  
H     -1.14203140     -6.05176268      2.94140407     -1.07641094e+01   -2.31174732e+00    2.92023042e+00       -0.00000379     -0.00002082      0.00000995  
H     -1.20064156     -6.06082430      2.85228051     -1.48767342e+01   -9.11629242e+00    3.32481783e+00       -0.00000364     -0.00002166      0.00001000  
H     -1.28170271     -6.07840177      2.79155988     -5.35146539e+00   -5.22347666e+00   -1.10697781e+00       -0.00000388     -0.00002115      0.00000964  
H     -1.20684672     -5.98160124      2.79505537     -9.92065920e+00   -1.46735832e+00    9.55372393e+00       -0.00000384     -0.00002244      0.00001021  
H     -1.25676065     -5.96685782      2.82706179      6.37411733e+00   -7.02666519e+00    1.03703564e+01       -0.00000374     -0.00002170      0.00000998  
H     -1.30577684     -5.91995240      2.79230453      1.31184456e+00   -1.73452963e+00    8.72790639e+00       -0.00000408     -0.00002235      0.00001029  
H     -1.22194447     -5.95386941      2.84743899     -7.45921745e+00   -1.10168678e+01    1.09453359e+01       -0.00000406     -0.00002489      0.00001112  
H     -1.17200217     -5.97479963      2.98559896     -5.14473199e+00   -2.46567736e+00   -6.98497491e+00       -0.00000462     -0.00002570      0.00001167  
H     -1.24162463     -5.87162587      3.07131440      6.78486378e+00    1.83162811e+00   -4.24809025e-01       -0.00000526     -0.00002489      0.00001185  
H     -1.19902310     -5.68645742      3.20002934      2.69758475e+00   -7.40050950e-02    2.03467464e+00       -0.00000471     -0.00002520      0.00001235  
H     -1.22642584     -5.73661931      3.14942792     -9.78264513e-02    5.85522318e+00   -3.11531422e+00       -0.00000516     -0.00002651      0.00001273  
H     -1.23688037     -5.72218757      3.10059057      6.66037406e+00    1.43246748e+01    6.09286449e+00       -0.00000569     -0.00002915      0.00001379  
H     -1.21038815     -5.73039953      3.04727165      1.40990258e+01   -6.04233857e+00    5.44379604e-01       -0.00000535     -0.00003096      0.00001444  
H     -1.29639882     -5.70842061      3.07669435      6.44317350e+00    4.77310094e+00   -4.88016467e+00       -0.00000656     -0.00003367      0.00001629  
H     -1.27047343     -5.76872592      3.04789063      1.71278403e+00   -7.95511806e+00    5.23301548e+00       -0.00000614     -0.00003137      0.00001473  
H     -1.34739067     -5.64081535      3.03376074     -5.17028807e+00    9.19798562e+00    3.60940153e+00       -0.00000647     -0.00003044      0.00001400  
H     -1.33015022     -5.73924160      3.04060494      7.36354629e+00    4.48546019e+00   -6.76485857e+00       -0.00000552     -0.00002776      0.00001310  
H     -1.36171541     -5.87811675      3.05607456     -6.52217401e+00    5.73593571e+00    3.51463154e+00       -0.00000493     -0.00002398      0.00001175  
H     -1.31339091     -5.82306867      3.05622962     -1.03105738e+01   -1.03805802e+01   -1.64812336e-01       -0.00000462     -0.00002419      0.00001198  
H     -1.31218699     -5.79487434      3.02565320     -7.97549413e+00   -4.78642484e+00   -7.38984374e+00       -0.00000591     -0.00002775      0.00001361  
H     -1.22503255     -5.81718494      3.07080812      9.31335595e+00    7.35614295e+00    1.52044974e-01       -0.00000461     -0.00002478      0.00001239  
H     -1.24256467     -5.93478594      3.07902801      2.40373008e+01    6.81544341e-01   -2.55942033e+00       -0.00000474     -0.00002328      0.00001138  
H     -1.25009648     -5.91304838      3.18615731      3.79144023e+00   -3.38775925e+00   -1.65554943e+01       -0.00000464     -0.00002332      0.00001149  
H     -1.16389106     -5.93846430      3.18838137      8.81290352e+00    8.61347422e+00    3.78245487e+00       -0.00000460     -0.00002376      0.00001191  
