3
100000  xi=   0.71913195  Mean pot=  -107.40646109  Cent pot=  -109.46491891 kcal/mol
H     -0.13535720      0.57879843     -1.33424842       0.19541361
H     -0.71653223      0.71351615     -1.75824017       0.18925244
H      0.85188944     -1.29231458      3.09248859       0.19082353
3
200000  xi=   0.72660170  Mean pot=  -107.38861952  Cent pot=  -109.49463324 kcal/mol
H      0.97454756      0.47422135      0.91171199       0.14221133
H      1.16915663      1.13835074      1.16327838       0.19006411
H     -2.14370419     -1.61257209     -2.07499037       0.14418904
3
300000  xi=   0.72201993  Mean pot=  -106.23664058  Cent pot=  -109.29109594 kcal/mol
H     -1.15342230     -0.00056926      1.38510329       0.16250575
H     -0.46512476      0.15665241      1.52335561       0.21741813
H      1.61854706     -0.15608315     -2.90845890       0.19212978
3
400000  xi=   0.72848102  Mean pot=  -106.25817354  Cent pot=  -108.52258048 kcal/mol
H      0.83721203      0.26545838      1.33738659       0.22364608
H      0.71139183     -0.39993402      1.49514942       0.19275001
H     -1.54860386      0.13447565     -2.83253601       0.22952295
3
500000  xi=   0.72292933  Mean pot=  -106.74209422  Cent pot=  -109.44634028 kcal/mol
H      1.05342320      0.83340113     -0.39872050       0.17228646
H      1.61619203      0.94699508     -0.88712511       0.17958111
H     -2.66961522     -1.78039621      1.28584561       0.25464118
3
600000  xi=   0.71867666  Mean pot=  -106.21852262  Cent pot=  -107.09242348 kcal/mol
H     -1.43615026     -0.70511531      1.00167313       0.22137992
H     -1.43690764     -0.33614790      0.44108183       0.18543344
H      2.87305791      1.04126321     -1.44275496       0.28878034
3
700000  xi=   0.72129222  Mean pot=  -106.06404914  Cent pot=  -109.00768969 kcal/mol
H     -1.42309658     -0.34651416      0.05717489       0.18535528
H     -1.72835650     -0.87291023      0.41952910       0.17569194
H      3.15145308      1.21942439     -0.47670399       0.20738912
3
800000  xi=   0.72751603  Mean pot=  -106.39857094  Cent pot=  -108.16752650 kcal/mol
H      1.08536174      0.81243566     -0.18879823       0.22018654
H      1.64838378      1.03428713     -0.51621428       0.14981535
H     -2.73374552     -1.84672279      0.70501251       0.23302014
3
900000  xi=   0.71784322  Mean pot=  -104.83330325  Cent pot=  -109.13027706 kcal/mol
H     -0.06340311      1.88173692      0.18180085       0.15423881
H     -0.33507093      1.39447888      0.71641806       0.19404708
H      0.39847404     -3.27621580     -0.89821891       0.20066048
3
1000000  xi=   0.72383814  Mean pot=  -107.99323595  Cent pot=  -109.50273664 kcal/mol
H     -1.20818525      0.41302659     -1.46928050       0.16583466
H     -1.15536842     -0.09589523     -0.93597853       0.23850398
H      2.36355367     -0.31713135      2.40525903       0.19100672
3
1100000  xi=   0.71795143  Mean pot=  -107.79506018  Cent pot=  -109.46300260 kcal/mol
H     -1.25232965     -0.39277861     -0.47643626       0.20333637
H     -1.82228853     -0.75080624     -0.76318724       0.14155480
H      3.07461818      1.14358485      1.23962350       0.21286866
3
1200000  xi=   0.72492226  Mean pot=  -107.29734780  Cent pot=  -109.23939257 kcal/mol
H      0.24829056      0.38165903     -1.61645512       0.19299938
H      0.39237858      1.04721955     -1.26195109       0.17489031
H     -0.64066914     -1.42887858      2.87840620       0.20262741
3
1300000  xi=   0.72055236  Mean pot=  -108.01841525  Cent pot=  -109.37777412 kcal/mol
H      1.52987991     -0.82830413      0.69113588       0.13048237
H      1.45616477     -0.11875572      0.56498589       0.22264921
H     -2.98604468      0.94705985     -1.25612177       0.16870133
3
1400000  xi=   0.72057767  Mean pot=  -105.21296891  Cent pot=  -108.86625052 kcal/mol
H     -0.10549303     -0.16186456      1.36951418       0.18768398
H     -0.37988088     -0.10848914      2.10054309       0.16367763
H      0.48537391      0.27035371     -3.47005727       0.15714867
3
1500000  xi=   0.71619158  Mean pot=  -106.44442029  Cent pot=  -109.41755761 kcal/mol
H     -0.76828420     -0.04973069     -1.26719672       0.18118538
H     -1.09036473     -0.61050631     -1.60015483       0.19465126
H      1.85864893      0.66023701      2.86735155       0.23192702
3
1600000  xi=   0.71575625  Mean pot=  -105.86069789  Cent pot=  -104.58824444 kcal/mol
H      0.73382710     -1.90305348      0.22268991       0.18684238
H      0.57759549     -1.27863820      0.19853757       0.26435626
H     -1.31142259      3.18169168     -0.42122748       0.20910674
3
1700000  xi=   0.72162703  Mean pot=  -107.88025799  Cent pot=  -109.02493993 kcal/mol
H     -1.40973114      0.68833647     -0.53825535       0.16837434
H     -1.66539831      0.04500640     -0.38621093       0.20710724
H      3.07512945     -0.73334287      0.92446628       0.20433267
3
1800000  xi=   0.72024890  Mean pot=  -104.79564966  Cent pot=  -109.46101330 kcal/mol
H      0.35448770     -1.66280863     -0.01753271       0.25041862
H     -0.09249571     -1.58070417     -0.61680439       0.20553937
H     -0.26199199      3.24351280      0.63433711       0.22102741
3
1900000  xi=   0.72006624  Mean pot=  -106.71856458  Cent pot=  -109.44488245 kcal/mol
H     -0.35897050     -0.97713654     -1.02918799       0.20584109
H     -0.94760679     -1.40459707     -1.08657445       0.18438907
H      1.30657729      2.38173361      2.11576243       0.18771131
3
2000000  xi=   0.71861394  Mean pot=  -106.40198200  Cent pot=  -109.50355776 kcal/mol
H      1.22458989      0.38724244      0.53446028       0.14562126
H      1.94199384      0.53432386      0.66446441       0.18697849
H     -3.16658373     -0.92156631     -1.19892469       0.18273494
