96
100000  xi=   0.96095618  Mean pot=  -101.94328465  Cent pot=  -103.77794810 kcal/mol
H     -0.74693032     -0.37287632      0.54259014     -1.61602747e+01    1.41048813e+01    9.81160135e+00      -33.16436727    -19.69964802     28.37605122  
H     -0.76812837     -0.39910745      0.58877138      6.02680356e+00   -7.76391518e+00    3.02517311e+00      -41.90212590    -30.20461447     40.20865453  
H     -0.61916931     -0.40736087      0.57400729      5.05887441e+00    3.99901634e+00   -4.93195025e+00       11.15754140      8.95760302    -10.35799133  
H     -0.66966433     -0.53580187      0.60964434     -4.86838107e+00   -1.78444881e+01    4.45339241e+00       -9.89031075    -12.37349288     12.40075383  
H     -0.73013528     -0.54516416      0.47683633     -2.90119081e+00    8.11369223e+00    4.06697377e+00      -16.42868472    -20.66314727      9.84643080  
H     -0.82166156     -0.62043741      0.48631852      3.26986022e+00   -1.15700735e+01    4.98340029e+00      -33.57239948    -38.63600786     23.88220793  
H     -0.84581522     -0.58788247      0.35754095      7.07147629e-01   -4.22563574e+00   -4.32253338e+00      -32.48334219    -29.55141810      9.51452624  
H     -0.82969318     -0.53054350      0.40484765     -9.30886481e+00    1.69136183e+01    2.05094942e+00       -3.62643694     -2.20292327      2.50453904  
H     -0.81291963     -0.53152929      0.32581969     -7.14658441e+00   -7.45436915e+00   -9.96429880e+00       -1.12348130      0.21452205      0.93657075  
H     -0.73595152     -0.62134530      0.32521448      4.54241472e+00    5.73644416e+00   -7.26425149e+00       57.14345545     48.56471771    -18.98316361  
H     -0.76226823     -0.55717434      0.32943188     -9.69824873e-01   -2.86171975e+00   -5.99193028e+00       18.21074565     14.42457237     -7.04397914  
H     -0.65318953     -0.51205051      0.46709157     -1.27574915e+01    8.43615974e+00   -4.64173834e+00       29.76953030     23.11202823    -22.40306166  
H     -0.70625901     -0.54759732      0.44655393     -6.58987369e+00    5.14966758e+00   -1.11318441e+01      -30.81264453    -30.38640777     19.61329668  
H     -0.75810833     -0.44707274      0.47995325      2.26165920e-01   -7.79870757e+00    1.70181600e+01      -31.06656017    -24.55943417     28.43675196  
H     -0.72435522     -0.53368884      0.45019838     -1.24114651e+00   -2.56473925e+00    1.37553795e+01      -35.84741347    -31.02753782     42.61666477  
H     -0.72083227     -0.39118043      0.38160449     -1.12246396e+00   -8.08263611e+00   -1.05265137e+01      -15.81097725    -10.81277997     14.54663088  
H     -0.63921222     -0.48239073      0.44464882      9.01832626e+00   -1.81440839e+00    4.30037173e+00        5.97157098      3.74389685     -3.31058838  
H     -0.66461528     -0.47445367      0.52761812     -6.15842741e+00   -1.51462108e+01    4.35732766e+00      -21.51718749    -28.58043091     40.99311590  
H     -0.62032570     -0.46961909      0.55240192     -9.41983888e+00    5.73816193e+00    1.43607778e+00      -13.51419183    -29.47760527     42.54823082  
H     -0.66398246     -0.43838170      0.49597745      3.93685642e+00   -1.06371549e+00   -6.84153826e+00      -17.90373174    -23.92565524     40.61064678  
H     -0.61948222     -0.56531432      0.47564922     -4.97539221e+00    1.28684420e+01    4.04798678e-01      -14.40052453    -28.75151677     36.83540410  
H     -0.68334033     -0.44763234      0.41238727      6.74002194e-01    1.94564869e+00   -9.38890869e+00      -13.04472350    -10.75538298     20.89777532  
H     -0.63628672     -0.51983787      0.40977104     -1.25105634e+01    7.08791234e-01   -2.30237737e+00       -5.21624516    -11.87518393     18.90233576  
H     -0.70998938     -0.53465753      0.40230405      2.11067604e+01    9.13127902e+00   -4.86185329e+00      -27.27416005    -18.95064843     31.87311090  
H     -0.73535802     -0.58991121      0.36864801      1.31197353e+01   -1.60612880e+00    1.12854416e+01      -27.93724119    -21.82157231     22.63355991  
H     -0.69676071     -0.45592201      0.30017932     -1.16882614e+01   -8.10131798e-01    1.26763342e+00      -20.01288692    -14.73170936     11.15969171  
H     -0.71485046     -0.42702353      0.31996528     -1.09732689e+01   -3.83578698e+00    1.14889018e+01       46.30390714     18.97020962    -28.03202236  
H     -0.67504112     -0.38146864      0.43402483     -4.57943378e+00    6.85147994e+00    8.50389347e+00       55.22870197     34.95588326    -43.84234985  
H     -0.75402629     -0.43255409      0.40988317     -6.13674121e+00   -1.58219110e+00   -6.29794402e-01      -11.18551026     -5.60680979      9.30179588  
H     -0.69987070     -0.47490427      0.56673417     -6.74134634e+00   -6.74986228e+00   -3.70273977e+00       21.61427149     14.91124711    -19.77313780  
H     -0.85640160     -0.41375586      0.52626448     -2.55945572e+00    8.96662670e+00   -9.09466668e+00      -31.23490541    -15.03855776     20.95119844  
H     -0.80843902     -0.31631130      0.48567089     -3.03510618e+00   -3.85222472e-01   -1.80352384e-01        3.02432959      1.85631713     -1.97982001  
H     -0.14969666     -0.01810249      0.05236860     -7.77118296e+00    8.70882631e-01    4.27731233e+00       37.85475721     22.48662174    -31.29981778  
H     -0.19460852      0.00987085      0.05576971      5.03666440e+00   -6.16894497e+00    5.24734852e+00       45.66981678     32.58147346    -42.49892011  
H     -0.22141627     -0.02573017      0.08803830      4.82894106e+00    7.54644814e+00    1.00761732e+01       -2.31735967     -3.62397623      5.45512075  
H     -0.22857227     -0.06058438      0.15635844     -2.45896139e+01    1.51505577e+01   -2.14295301e+00       16.93186127     17.56498501    -16.51864325  
H     -0.22147733      0.01488056      0.18186273     -7.95978451e-01   -1.84547571e+01    1.08912686e+01       23.14529765     25.37267126    -13.40833774  
H     -0.27643168     -0.02163049      0.11594703     -1.58108709e+00   -1.01488548e+01    1.73908656e+00       35.30818608     40.66674305    -25.13720846  
H     -0.21462649     -0.01901738      0.15814027      3.54400686e+00    1.15657208e+00   -6.18710804e+00       34.67627005     31.57421035    -10.08143407  
H     -0.26195691     -0.11819693      0.10721039      1.85960048e+00   -9.88438461e+00   -1.01544493e+00       10.67371601      8.08909759     -5.12420349  
H     -0.21180003     -0.15027394      0.05504427      2.71337796e+00   -1.69452400e+00    6.06838378e-01        9.11892954      6.38377029     -3.82894942  
H     -0.23842294     -0.19458527      0.16155110     -1.78370362e+00    6.86055330e+00    5.72903989e+00      -48.64607522    -42.21167293     15.80242524  
H     -0.22115796     -0.11348478      0.12205311     -1.35605203e+01    2.71550085e+00    7.27021692e+00       -8.82682424     -7.67539413      3.32699015  
H     -0.17987199     -0.14837591      0.08323579      1.06986262e+00    1.35229955e+01    5.90850739e-01      -19.88934103    -15.07084693     17.67017400  
H     -0.12648544      0.00245707      0.09140275      1.26449751e+01   -8.83217836e+00    7.00553029e+00       32.89849595     32.47434715    -20.96082493  
H     -0.19448462     -0.01258280      0.00285192     -1.30076053e+01    4.31453074e+00    6.05878440e+00       35.61854691     27.68486343    -30.94597240  
H     -0.15119589     -0.05898250     -0.15580789     -3.69444304e+00   -3.68064013e+00    3.94050840e+00       31.67400102     29.30412712    -44.31258654  
H     -0.12449163     -0.00706565     -0.04960414     -1.57167666e+00   -4.00093075e+00    5.32946485e+00       22.08179337     14.61716938    -17.91808469  
H     -0.26550162     -0.04919955     -0.03761735      1.15575744e-01   -2.18911528e+00   -3.98871217e+00        3.35906754      1.66703280     -1.25513978  
H     -0.20687816      0.03373687     -0.16061706      1.10748500e+01   -3.46596419e+00   -3.43994666e+00       12.69990124     26.62160057    -42.15745238  
H     -0.27504214      0.04598381     -0.15909058      3.79614968e+00    6.80215397e+00   -3.89965282e+00        9.48161202     30.88625524    -45.98769066  
H     -0.24489393      0.01415554     -0.21376557     -1.42571283e+01    6.05395484e-01   -8.83989752e+00       12.89620146     23.43028336    -43.13451018  
H     -0.26090108     -0.04273854     -0.17741742     -3.19761933e+00   -1.63335036e+00   -3.26776701e+00       13.51151043     30.99544252    -40.05192043  
H     -0.18626554     -0.09869501     -0.16683003     -5.99331637e+00   -8.44846135e+00    8.08304574e+00       18.64134967     14.19869519    -25.68883523  
H     -0.27445683     -0.11323156     -0.20155736      2.58550756e+00    6.87714775e+00   -3.20261836e+00       13.73921785     16.77031863    -25.44596781  
H     -0.14736370     -0.17564829     -0.17643890      7.51986922e+00   -1.92668288e+00    2.69057049e+00       28.75304847     20.30273667    -34.40216541  
H     -0.17176594     -0.16891872     -0.06912824     -3.97601433e+00   -1.04514224e+01   -3.67132818e+00       33.66444699     24.90146585    -25.90913434  
H     -0.07861237     -0.05403117     -0.03339277      7.68997602e-01    3.07212116e+00   -5.30410046e+00       27.53945363     17.73883110    -14.82639298  
H     -0.15611497     -0.19667211     -0.02717630     -3.19582783e-01    3.34452258e+00    3.45145166e+00      -34.46088472    -14.32605442     22.14174796  
H     -0.21066166     -0.07340043      0.05070067      1.44444023e+00   -6.36502149e+00   -4.84002419e+00      -44.00485694    -30.92224488     38.11904527  
H     -0.16933085     -0.14507194     -0.01879544     -5.92941434e+00    1.42356742e+01    1.00987809e+01       18.89506166      9.22395205    -13.17144808  
H     -0.24404164     -0.15431149      0.12204539      1.84948571e+00   -3.51106459e+00    5.68963780e+00      -15.33717202    -11.05037254     16.15320551  
H     -0.22509185     -0.10734630      0.11008472      1.36092470e+01    2.28225294e-01   -8.02895226e+00       36.58974974     17.83746200    -23.88860400  
H     -0.21252120      0.00672802      0.15590217      2.67275531e+00    5.45098501e+00   -6.60553682e+00        5.19090024      2.97724765     -3.10315792  
H      0.96707453      0.64558834     -0.49682510     -4.64848465e+00    1.41707653e+01    1.11186709e+01       -4.69038994     -2.78697373      2.92376656  
H      1.03842660      0.73839793     -0.50091595     -1.05133281e+00    6.33951463e+00    3.84126329e+00       -3.76769089     -2.37685898      2.29026558  
H      0.99825779      0.63151195     -0.44109194      6.69902267e+00   -1.26702985e+01   -1.04225983e+01       -8.84018173     -5.33362679      4.90287058  
H      0.88746877      0.65461568     -0.35617043     -9.93857945e+00   -8.75436053e+00    1.21758167e+01       -7.04155052     -5.19149213      4.11788941  
H      0.88021217      0.59236762     -0.37819312     -1.00513734e+01    1.00535254e+01   -3.80863193e+00       -6.71661293     -4.70952399      3.56190694  
H      0.79087568      0.67275080     -0.31753797     -7.72011901e-01   -1.98887596e+00    7.01234336e+00       -1.73578660     -2.03073518      1.25500054  
H      0.69926084      0.74467460     -0.29323290      1.47918547e+01   -1.07046581e+00    1.93159998e+00       -2.19292786     -2.02279225      0.56690783  
H      0.84255919      0.83905816     -0.25476004      2.91099537e+00    4.94054128e+00   -1.33103608e+01       -7.04727907     -5.88617433      2.61966445  
H      0.82015163      0.77105094     -0.28590160     -3.68512363e+00    4.02423854e+00    7.35311996e+00       -7.99544824     -6.59829233      2.89237867  
H      0.96627138      0.67971585     -0.30026098     -8.76379915e+00   -3.43324469e+00   -1.32744414e+00       -8.49738023     -6.35304478      3.18073837  
H      0.88951751      0.65607764     -0.32162237     -2.81545935e+00    6.70578389e+00   -9.56059561e-01       -9.38392141     -6.74917824      3.71698899  
H      0.86113546      0.71029550     -0.33209301     -3.87767257e+00    7.85907157e+00    6.26596283e+00       -9.88018927     -8.04118130      4.73288766  
H      0.87831579      0.68772089     -0.35248027      3.05353545e+00    5.99193804e+00   -6.45458604e+00       -2.08585142     -2.08793938      1.34752824  
H      0.94221800      0.69227696     -0.35885982     -3.04447996e+00    3.49200425e-01    1.03768676e+00       -4.55198674     -3.12542927      2.50922044  
H      0.94436657      0.57714733     -0.35813471      1.01863459e+01   -5.31599994e+00   -2.71770525e+00        4.17341245      1.72341070      1.69592177  
H      0.91962289      0.56659942     -0.31484341      5.03803602e+00   -3.80524059e+00   -1.02802870e+01       -6.27081613     -3.80438941      3.37145381  
H      0.99423641      0.55404490     -0.47798772      2.50528445e+00    4.13195085e+00   -6.87266570e+00       -9.33063853     -5.41092965      4.56572817  
H      0.85254772      0.51265163     -0.46928995     -6.89788436e+00   -3.03378412e+00    8.14979844e+00        8.81728625      1.95883035      1.16433648  
H      0.82321239      0.45840454     -0.48110675     -2.40460862e+00   -8.90826820e+00   -1.01902400e+01        4.03257982     -1.40864997      3.43945983  
H      0.79716799      0.50163543     -0.54973667     -5.41010873e+00    4.99231221e+00   -7.33737275e+00        5.00753028      0.49537188      2.52386341  
H      0.80756177      0.39238955     -0.59051630      3.43895771e-01   -9.88416953e+00   -7.26448206e+00        0.88901410     -2.24392575      3.21651632  
H      0.85168522      0.39795238     -0.54935629      9.86109968e+00    1.55859608e+01    3.39164805e+00       -5.59662616     -3.44331221      4.79105991  
H      0.84056433      0.27188532     -0.62930684     -6.26880284e+00    8.55337080e+00    8.67582317e-01       -8.52297269     -4.89513470      6.54363205  
H      0.95452349      0.24318161     -0.60840524     -1.53717398e+01   -4.41686211e-01   -1.56281821e+00       -1.47888842     -1.35208823      2.52905450  
H      1.04835096      0.39343818     -0.67513917     -9.08795056e+00   -3.66858747e+00   -6.76044490e+00       -5.72720580     -3.07989354      3.27557443  
H      1.12709564      0.28640626     -0.59119914     -4.24825750e+00    5.14736234e+00    9.66786087e+00       -7.52656671     -3.00712174      3.66670128  
H      1.04582677      0.26901669     -0.59022856      1.14528338e-01   -1.07108267e+01    3.26488558e+00      -11.84302242     -4.64415520      5.89027440  
H      1.08743253      0.32348935     -0.53897065     -5.54324479e+00   -9.74719521e-01    4.70347937e+00      -11.22384504     -4.03363838      5.72330457  
H      1.07299872      0.42967502     -0.55885992     -1.51466013e+01    1.92336874e+01   -3.92518881e+00       -7.70955140     -3.61714226      3.86965220  
H      1.07233358      0.63426290     -0.54175415      1.77780586e+00   -5.91284427e+00    4.28726226e+00       -6.27709947     -3.86087457      3.61993229  
H      1.06156599      0.57949296     -0.55325394     -1.66005316e+00    7.18376529e+00   -1.48356508e+01       -5.35484433     -2.79890424      2.93740556  
H      0.86636537      0.65723973     -0.53384571      2.87215212e+00    8.20390572e+00    7.18459391e+00       -8.21522983     -4.83356478      5.08297793  
