3
100000  xi=  -0.02326930  Mean pot=  -105.21337723  Cent pot=  -108.53750445 kcal/mol
H      0.71953246      5.67894932     -0.13221905       0.21550317
H      0.45206082      5.06885902      0.29693949       0.17739126
H     -1.17159328    -10.74780834     -0.16472044       0.19078690
3
200000  xi=  -0.01875201  Mean pot=  -106.22487244  Cent pot=  -109.02493817 kcal/mol
H     -0.73097489      5.25248677      0.59171077       0.17624614
H     -0.12977001      5.37470681      0.94715983       0.19077424
H      0.86074489    -10.62719359     -1.53887060       0.19275249
3
300000  xi=  -0.01874620  Mean pot=  -104.54823401  Cent pot=  -107.99251208 kcal/mol
H     -4.33211533     -1.81924900     -2.42108151       0.16378590
H     -4.50500264     -1.22107332     -2.93306112       0.16256746
H      8.83711797      3.04032232      5.35414263       0.17308802
3
400000  xi=  -0.01375500  Mean pot=  -104.64572747  Cent pot=  -108.44947385 kcal/mol
H      4.69810001     -3.23261671      0.09109028       0.20555202
H      4.17690748     -2.77565539      0.12368501       0.29041286
H     -8.87500749      6.00827210     -0.21477529       0.18447555
3
500000  xi=  -0.01399491  Mean pot=  -105.17730205  Cent pot=  -109.49774390 kcal/mol
H     -3.87745505      3.75576642      0.59521988       0.13780845
H     -3.86186315      3.43193622      1.26238340       0.14571893
H      7.73931820     -7.18770263     -1.85760328       0.16371327
3
600000  xi=  -0.01886428  Mean pot=  -106.76641455  Cent pot=  -108.57240356 kcal/mol
H      5.25086158      0.27928136      1.18958796       0.15002132
H      5.27217111      0.86903269      0.81935241       0.21398972
H    -10.52303269     -1.14831405     -2.00894037       0.15701366
3
700000  xi=  -0.01634759  Mean pot=  -106.12714310  Cent pot=  -107.52483248 kcal/mol
H      1.43743094     -2.00249660      4.50252290       0.21446651
H      1.99377926     -1.94626966      4.88486027       0.15569003
H     -3.43121020      3.94876626     -9.38738317       0.22934798
3
800000  xi=  -0.01580006  Mean pot=  -105.33873192  Cent pot=  -108.93832575 kcal/mol
H      0.29856053      5.28049820     -2.12525842       0.24690093
H      0.31861024      4.51003163     -2.24448964       0.17028252
H     -0.61717077     -9.79052983      4.36974806       0.22308249
3
900000  xi=  -0.02590965  Mean pot=  -107.16080040  Cent pot=  -109.42864602 kcal/mol
H     -2.53759390      0.77134546     -4.95340786       0.16301224
H     -2.25381143      0.13830473     -4.72978423       0.18687758
H      4.79140533     -0.90965019      9.68319209       0.14761048
3
1000000  xi=  -0.02400638  Mean pot=  -106.78855700  Cent pot=  -109.33779066 kcal/mol
H     -4.05888530      0.12374406     -3.31255438       0.19103369
H     -4.74133887      0.03923769     -2.98497721       0.13477473
H      8.80022417     -0.16298175      6.29753159       0.20177121
3
1100000  xi=  -0.02060608  Mean pot=  -105.38913821  Cent pot=  -109.44240108 kcal/mol
H      5.00646629      0.33604654     -2.84467209       0.14496477
H      4.33801508      0.23532586     -2.51220131       0.14046617
H     -9.34448137     -0.57137240      5.35687340       0.20114235
3
1200000  xi=  -0.01810006  Mean pot=  -107.60154086  Cent pot=  -109.48408517 kcal/mol
H      2.45418889      4.82464496     -0.39093357       0.21973221
H      2.68159961      4.53064387     -1.02609086       0.16696215
H     -5.13578850     -9.35528883      1.41702443       0.23678112
3
1300000  xi=  -0.02534927  Mean pot=  -106.10001827  Cent pot=  -109.37388604 kcal/mol
H      1.75108537      4.75457714      1.88069807       0.21692609
H      1.85553714      4.46354418      2.53607005       0.20742511
H     -3.60662251     -9.21812132     -4.41676812       0.18200501
3
1400000  xi=  -0.02240479  Mean pot=  -104.94163633  Cent pot=  -108.18938450 kcal/mol
H      0.10453305      3.76691500      3.47086958       0.15973256
H      0.51165933      4.08993288      3.92268333       0.20616182
H     -0.61619238     -7.85684788     -7.39355291       0.15612559
3
1500000  xi=  -0.02330014  Mean pot=  -105.63760429  Cent pot=  -108.49405442 kcal/mol
H     -1.68107737      2.92820430     -3.77312420       0.17453465
H     -1.78491294      3.65606078     -4.07191474       0.20580044
H      3.46599031     -6.58426508      7.84503894       0.16532048
3
1600000  xi=  -0.01222745  Mean pot=  -105.91806847  Cent pot=  -108.92265252 kcal/mol
H      3.84097786      2.34799480     -2.79234635       0.23967878
H      3.67319633      2.07500536     -3.42122966       0.21361136
H     -7.51417419     -4.42300016      6.21357601       0.15893605
3
1700000  xi=  -0.02415330  Mean pot=  -106.63078239  Cent pot=  -109.48778777 kcal/mol
H     -3.46130903      4.04589860     -1.63064409       0.21508781
H     -3.13501013      4.13514784     -0.96512837       0.19994359
H      6.59631916     -8.18104644      2.59577246       0.19034511
3
1800000  xi=  -0.01511905  Mean pot=  -106.26287766  Cent pot=  -109.49683258 kcal/mol
H     -1.30932263      4.94580976      0.63391414       0.17079902
H     -1.42259837      5.41082887      0.06934977       0.18745664
H      2.73192100    -10.35663864     -0.70326392       0.22424843
3
1900000  xi=  -0.01918031  Mean pot=  -106.24118254  Cent pot=  -108.99327633 kcal/mol
H      0.91332520      0.01462242     -5.43480808       0.22222380
H      0.62315896     -0.59282685     -5.21555527       0.17891157
H     -1.53648416      0.57820443     10.65036335       0.15697751
3
2000000  xi=  -0.03536213  Mean pot=  -107.09664510  Cent pot=  -109.26234627 kcal/mol
H      4.75915433      1.16254605     -1.46096589       0.18511957
H      5.46123464      1.22322267     -1.60055100       0.20383485
H    -10.22038898     -2.38576872      3.06151690       0.20260978
