96
100000  xi=   0.41988639  Mean pot=  -105.87489748  Cent pot=  -109.25550096 kcal/mol
H      0.85482038      2.93940309     -2.02467638     -1.05365064e+00    3.55268450e+00   -7.25507614e+00       37.00322409     46.24658497    -57.99666816  
H      0.84774248      2.89457476     -1.97798858      3.84271914e-02   -8.24416120e+00    1.02869717e+01       36.76124108     45.36687391    -51.89552852  
H      0.86928684      2.85913890     -1.89351213     -1.45750170e+00    1.07608441e+01    1.97447830e+00      -14.60880996    -19.45420922     21.94582078  
H      0.85572781      2.85859527     -1.92934177     -2.94095454e-02    1.45274081e+01   -3.84325168e+00       23.26352298     24.21741400    -33.84341855  
H      0.86712002      2.82139976     -1.96884500      4.18517326e+00    2.18222216e+00    8.03368437e+00       22.26078982     24.51876195    -44.22774390  
H      0.77776115      2.90855555     -1.98795741      4.07385571e+00    4.10508058e+00    6.14352440e+00        0.17892982      0.18039339     -0.43925986  
H      0.79396040      3.06347528     -2.02349957      6.71418694e+00   -8.26096898e-01   -6.85653537e+00       -8.15508023    -10.80853824     16.20180158  
H      0.76836823      3.01440735     -1.98321069      3.74341518e-01   -7.13886142e+00   -1.33025314e+01      -21.70739672    -27.75606793     41.34305968  
H      0.76081185      2.98393632     -1.96446697     -5.48373335e+00   -2.94452118e+00   -1.47642757e+01       -3.22855072     -4.80104126      6.14912626  
H      0.62609858      3.04357367     -1.93648200      7.26706092e+00   -3.90866716e+00    4.22268787e+00        8.09895081     11.46548976    -14.63161481  
H      0.65903439      2.97360103     -2.01424584      3.84875828e+00   -1.19593953e+01    6.02375271e+00       26.30322604     26.25850738    -44.19998183  
H      0.55969034      3.02022861     -1.95675106     -9.25285324e-01    9.51010148e+00    1.10664864e+01      -15.46067435    -19.55808664     28.13535376  
H      0.49350806      2.91354955     -1.84826828      1.66124223e-01   -5.61710798e+00   -1.58340773e+01     -112.66324040    -89.28090211    161.15985125  
H      0.45584916      3.03674212     -1.92170481     -1.01113241e+01   -2.57552265e+00   -1.58611094e+01        9.32786133     15.06780135    -12.92937549  
H      0.42757167      2.97697936     -1.93240830     -1.41412386e+01    1.60795962e+01    1.21127558e+00        9.50702597     12.81698733    -17.36128692  
H      0.61324455      2.91797486     -1.90291366     -3.95055596e+00   -6.87296285e+00    9.64407778e+00       45.33489546     31.29649537    -51.60483154  
H      0.60743390      2.92170949     -1.93737755     -5.71816670e+00   -3.11641372e+00    8.10704845e+00       15.44983126      7.57181086    -21.87126986  
H      0.57638674      2.87050799     -1.92726203     -8.98454038e+00   -1.66868537e+00    6.32116728e+00       27.33922090      9.82040651    -39.70907640  
H      0.57642559      2.79228980     -1.93578455     -1.32885086e+01   -8.16088954e+00    2.11121632e-01       28.81358390     13.00905358    -61.37606695  
H      0.50151192      2.84820401     -1.88347686     -1.51595223e+01   -6.36910461e+00    4.36763907e+00       13.19721556     16.59548115    -32.54984566  
H      0.48031993      2.80212373     -1.79928441      6.02271058e+00   -6.77576367e+00   -1.63964346e-01      -43.02892738    -47.03765988     93.76480633  
H      0.52777444      2.70744545     -1.80830123     -5.47127367e+00    5.40771180e+00   -1.13823404e-01      -60.80030901    -33.23630728    120.33155938  
H      0.65965837      2.74216390     -1.88285571     -3.14324468e+00    6.08377387e+00   -5.51379859e+00       13.21097073      5.62811504    -26.18043148  
H      0.75312270      2.80713047     -1.74724024      8.19729789e+00    1.14289621e+01   -6.15368761e+00      -33.23813317    -14.70001572     36.37392972  
H      0.84768603      2.71227218     -1.71572449      2.77749234e+00    1.54806464e+00    1.08837850e+00      -83.27313756     -5.64171314     72.67997284  
H      0.93925149      2.83695722     -1.84141816      1.25321274e+01    1.38043521e+00   -3.39587574e+00        9.95530032      4.42248925     -6.93424105  
H      0.87110265      2.91575488     -1.90345226      9.03382344e+00   -5.04482926e+00   -1.23150456e+01       18.20972638      6.09584729    -18.49176842  
H      0.84813270      2.89842198     -1.89268721     -5.26544696e+00   -8.21929544e-01    4.18866491e+00       14.32541522      8.83507998    -17.49527910  
H      0.82856467      2.84922517     -1.98604319     -8.08042020e+00    2.91962347e+00    2.76041110e+00       36.16095030     21.24260441    -52.58745843  
H      0.83197808      2.88110242     -1.95854486      4.80473594e+00    1.46062886e+01   -5.45539754e+00       35.27922631     45.77348014    -64.36540183  
H      0.73706891      2.90399549     -1.95649272      9.90816064e+00   -7.04991676e+00   -2.29240350e+00       32.45543713     50.73854430    -70.22760782  
H      0.81886725      2.87480199     -2.04926898      6.60866079e+00    3.96303722e-01    6.53595804e+00       47.53198030     49.52284691    -72.41750912  
H      0.45020943      2.43372067     -1.39051300      7.49451005e+00   -3.25754715e+00   -3.38339745e+00      -37.00321905    -46.24655304     57.99664917  
H      0.42910150      2.37793173     -1.38699662     -2.00330831e+01    3.14593690e+00   -4.87716736e+00      -36.76123607    -45.36683967     51.89550829  
H      0.55431076      2.43969309     -1.42034520     -1.25270836e+01   -1.38705167e+01   -9.77854749e+00       14.60881538     19.45424275    -21.94584006  
H      0.45863953      2.44522462     -1.35166369      2.41035881e+00   -1.08087368e+01   -1.00640017e+01      -23.26351716    -24.21738030     33.84340012  
H      0.53300917      2.45339894     -1.30503343     -5.81426108e+00    5.00576817e+00    9.13188504e+00      -22.26078391    -24.51872882     44.22772599  
H      0.51604592      2.64468509     -1.34546328     -5.10644342e+00    6.82978419e+00    7.45939317e+00       -0.17892483     -0.18036412      0.43924423  
H      0.51663165      2.69591128     -1.47252718      3.95855023e-01   -5.43046268e+00    9.91749459e+00        8.15508528     10.80857024    -16.20181896  
H      0.49384584      2.66339064     -1.46036611      4.15502149e+00   -3.43028890e+00    5.05508425e+00       21.70740105     27.75609610    -41.34307500  
H      0.48099285      2.56783071     -1.43152165     -7.58242355e+00    9.99335204e-01    4.71912700e+00        3.22855580      4.80107333     -6.14914351  
H      0.31922881      2.60914491     -1.38208897     -7.22298498e+00    2.38463490e+00   -1.15668887e+01       -8.09894608    -11.46545686     14.63159778  
H      0.27882611      2.59403899     -1.37534321     -2.10829225e+00    1.10778717e+01   -1.03168676e+00      -26.30322135    -26.25847606     44.19996584  
H      0.27103516      2.65507393     -1.43145614     -1.84907348e+00   -2.18289351e+00    4.70129770e+00       15.46067894     19.55811992    -28.13537092  
H      0.18614130      2.66997431     -1.40859356      5.06676223e+00    6.25949959e-01   -7.37664588e+00      112.66324454     89.28093318   -161.15986747  
H      0.12814305      2.50737965     -1.46746997     -1.03644747e+00   -3.39956599e+00   -4.00697158e+00       -9.32785603    -15.06776013     12.92935305  
H      0.11588982      2.55678178     -1.36322920     -4.89922461e+00    1.25674403e+01    4.83042442e-01       -9.50702149    -12.81694988     17.36126748  
H      0.08400359      2.55261848     -1.30047721      9.53115462e+00    8.61801973e+00    1.09336142e+01      -45.33489190    -31.29646338     51.60481422  
H      0.17464810      2.70960526     -1.32471222     -9.10832218e-01   -1.39679423e+01   -1.07693972e+01      -15.44982730     -7.57178285     21.87125429  
H      0.12252429      2.70747790     -1.26804575      8.95759714e-01    3.65137907e+00   -2.32367278e+00      -27.33921690     -9.82037688     39.70905921  
H      0.21645595      2.62976692     -1.16901005      7.63371221e+00   -6.80673097e+00    7.65902675e-01      -28.81357913    -13.00902185     61.37604927  
H      0.23055422      2.50747456     -1.21518190      5.79986998e-01    1.15039446e+00   -4.14214456e+00      -13.19720971    -16.59544050     32.54982378  
H      0.23605916      2.53510690     -1.26701314     -7.03133487e+00    1.40052055e+00   -5.87372276e+00       43.02893279     47.03769925    -93.76482744  
H      0.25272001      2.55708784     -1.26393348      5.49829933e+00    6.98804543e-01    9.52199949e+00       60.80031441     33.23634144   -120.33157832  
H      0.31337163      2.59463923     -1.19661267      1.22519413e+01    3.00681395e-01   -1.03818075e+01      -13.21096536     -5.62808285     26.18041389  
H      0.30744496      2.61002364     -1.25951585     -1.91724485e+00    9.33440915e+00    6.63887414e+00       33.23813880     14.70005014    -36.37394888  
H      0.36208542      2.67937294     -1.29189705     -2.09446116e+00    6.92126262e+00   -6.45849386e+00       83.27314328      5.64174137    -72.67998932  
H      0.35483463      2.57733870     -1.43434969      1.67073614e+00   -5.77710569e+00    3.89203157e+00       -9.95529538     -4.42246143      6.93422485  
H      0.33986833      2.73792001     -1.36398987     -4.20758567e+00   -5.48422777e+00   -4.38400945e-01      -18.20972169     -6.09582067     18.49175328  
H      0.39132874      2.61669156     -1.33480356      6.51750695e+00   -1.65398919e+01    2.77710234e+00      -14.32540988     -8.83504809     17.49526145  
H      0.36741971      2.57832731     -1.31541804      7.55734278e+00    2.17250883e+01    1.43527882e+01      -36.16094526    -21.24257279     52.58744077  
H      0.45648538      2.39391447     -1.27347484      9.52498914e-01    4.89479001e+00    6.14644618e-01      -35.27921985    -45.77344230     64.36538099  
H      0.40421669      2.38363761     -1.23626158      5.65227768e+00    5.08443269e+00   -6.16242640e-01      -32.45543065    -50.73850609     70.22758637  
H      0.34452299      2.38058980     -1.32658012      2.33042415e+00    7.38358288e-01   -8.57386176e+00      -47.53197523    -49.52281214     72.41748901  
H     -0.96494756     -5.52685601      3.50611993      1.74996066e+01    6.12008320e+00   -8.09864965e-02       -0.00000504     -0.00003193      0.00001899  
H     -0.91925342     -5.54264616      3.44947383     -3.15123413e+00   -1.06965473e+01   -3.08993768e+00       -0.00000501     -0.00003424      0.00002022  
H     -0.92883930     -5.57001515      3.36361132      5.02250654e+00    1.98158786e+01    4.23323207e+00       -0.00000542     -0.00003353      0.00001929  
H     -1.11525783     -5.58060073      3.24087645      3.28023055e+00    9.28270149e+00    2.46563518e+00       -0.00000582     -0.00003370      0.00001843  
H     -1.04016095     -5.56933356      3.27488732      4.35865401e+00   -9.41634549e+00    9.69654654e+00       -0.00000592     -0.00003312      0.00001791  
H     -0.96539498     -5.52777459      3.22246314      7.46232450e-01   -9.91333354e+00    5.94338345e+00       -0.00000499     -0.00002927      0.00001563  
H     -0.90758379     -5.43450451      3.16965072     -2.75236263e+00    6.12428465e+00    7.96307392e+00       -0.00000505     -0.00003200      0.00001737  
H     -0.90243397     -5.62946018      3.23204428      2.29438758e+00   -1.84135354e+00    2.31923430e-01       -0.00000433     -0.00002817      0.00001532  
H     -0.95733859     -5.61772763      3.17490373     -1.06068531e+01   -1.65908729e+00    2.65221229e+00       -0.00000508     -0.00003207      0.00001725  
H     -1.01592430     -5.62674957      3.08572496     -1.47215863e+01   -8.46705854e+00    3.06157234e+00       -0.00000473     -0.00003290      0.00001703  
H     -1.09703672     -5.64436366      3.02509962     -5.19188862e+00   -4.57107779e+00   -1.37845370e+00       -0.00000469     -0.00003131      0.00001599  
H     -1.02211986     -5.54754178      3.02849180     -9.76633982e+00   -8.16798850e-01    9.29116615e+00       -0.00000459     -0.00003328      0.00001716  
H     -1.07208372     -5.53279723      3.06057471      6.53275123e+00   -6.37620727e+00    1.01011968e+01       -0.00000414     -0.00003107      0.00001622  
H     -1.12107778     -5.48591525      3.02579360      1.46856290e+00   -1.08204654e+00    8.46079770e+00       -0.00000530     -0.00004122      0.00002244  
H     -1.03723237     -5.51979482      3.08089135     -7.30362132e+00   -1.03676323e+01    1.06814099e+01       -0.00000448     -0.00003745      0.00001944  
H     -0.98733397     -5.54076430      3.21913639     -4.98535414e+00   -1.81306173e+00   -7.25624749e+00       -0.00000356     -0.00003200      0.00001731  
H     -1.05689652     -5.43756306      3.30474724      6.93906904e+00    2.48185000e+00   -6.87038137e-01       -0.00000396     -0.00002801      0.00001557  
H     -1.01435076     -5.25240135      3.43355117      2.85660214e+00    5.76800565e-01    1.76475576e+00       -0.00000400     -0.00002963      0.00001720  
H     -1.04172070     -5.30257973      3.38290645      5.83616107e-02    6.50744961e+00   -3.38148695e+00       -0.00000478     -0.00003173      0.00001769  
H     -1.05217402     -5.28811401      3.33405217      6.81646013e+00    1.49739653e+01    5.82814620e+00       -0.00000585     -0.00004065      0.00002188  
H     -1.02571665     -5.29636616      3.28080474      1.42581126e+01   -5.38957656e+00    2.73490400e-01       -0.00000541     -0.00003938      0.00002111  
H     -1.11167064     -5.27435457      3.31012553      6.59737414e+00    5.42303200e+00   -5.14225116e+00       -0.00000540     -0.00003416      0.00001893  
H     -1.08580471     -5.33467421      3.28141985      1.87211070e+00   -7.30394804e+00    4.96246185e+00       -0.00000537     -0.00003219      0.00001759  
H     -1.16267980     -5.20677265      3.26722888     -5.01459771e+00    9.84991786e+00    3.34413153e+00       -0.00000563     -0.00003442      0.00001917  
H     -1.14545001     -5.30516967      3.27407662      7.52015337e+00    5.13487169e+00   -7.03044356e+00       -0.00000573     -0.00002823      0.00001648  
H     -1.17703962     -5.44408445      3.28960143     -6.36345890e+00    6.38875784e+00    3.24429495e+00       -0.00000493     -0.00002782      0.00001620  
H     -1.12866385     -5.38899974      3.28966119     -1.01562848e+01   -9.73092078e+00   -4.26929889e-01       -0.00000469     -0.00002662      0.00001514  
H     -1.12752079     -5.36082678      3.25918812     -7.81595367e+00   -4.13491943e+00   -7.66087470e+00       -0.00000535     -0.00003189      0.00001765  
H     -1.04031642     -5.38313852      3.30426653      9.46859140e+00    8.00774479e+00   -1.12384470e-01       -0.00000503     -0.00003161      0.00001765  
H     -1.05787069     -5.50071621      3.31251031      2.41944430e+01    1.33114399e+00   -2.82591710e+00       -0.00000646     -0.00003785      0.00002084  
H     -1.06541553     -5.47901611      3.41967637      3.94971348e+00   -2.73492952e+00   -1.68251552e+01       -0.00000647     -0.00003822      0.00002146  
H     -0.97916619     -5.50439281      3.42181540      8.96738720e+00    9.26293508e+00    3.52012234e+00       -0.00000507     -0.00003477      0.00002011  
