3
100000  xi=  -0.05226099  Mean pot=  -107.49962887  Cent pot=  -109.25819944 kcal/mol
H     -0.58675007     -3.67830149      3.77556773       0.19585569
H     -0.21193614     -3.82326417      4.37079660       0.20753460
H      0.79868622      7.50156566     -8.14636433       0.20800818
3
200000  xi=  -0.04186047  Mean pot=  -106.84602477  Cent pot=  -109.19354583 kcal/mol
H     -4.15911437     -3.41578531      0.86792924       0.21298108
H     -4.46573868     -3.03571164      1.39059581       0.19455811
H      8.62485305      6.45149695     -2.25852506       0.11274645
3
300000  xi=  -0.04720098  Mean pot=  -106.75081308  Cent pot=  -109.25077881 kcal/mol
H      3.26839971     -1.55772122      4.20627770       0.20752903
H      3.45446424     -0.86503887      4.23567469       0.17108434
H     -6.72286394      2.42276009     -8.44195239       0.14465287
3
400000  xi=  -0.05400729  Mean pot=  -105.69594202  Cent pot=  -109.49689911 kcal/mol
H     -1.14175881      5.24040586      1.91022488       0.19108229
H     -0.97534721      4.76957391      2.45658851       0.16834078
H      2.11710603    -10.00997977     -4.36681339       0.17399174
3
500000  xi=  -0.05382745  Mean pot=  -107.23319837  Cent pot=  -109.26311739 kcal/mol
H      3.66036503     -1.26020036      4.01131498       0.18417547
H      3.24566632     -1.83066613      4.14817103       0.17950150
H     -6.90603135      3.09086648     -8.15948601       0.19263731
3
600000  xi=  -0.04563327  Mean pot=  -107.04831829  Cent pot=  -109.46320772 kcal/mol
H      1.33803127      5.06488168     -0.38101666       0.19094767
H      1.02055825      5.70043056     -0.20221573       0.18907477
H     -2.35858952    -10.76531224      0.58323238       0.21596287
3
700000  xi=  -0.05026345  Mean pot=  -105.25067224  Cent pot=  -109.22750634 kcal/mol
H      2.68653418     -3.15374182      3.91825941       0.22535124
H      2.67191742     -3.43645394      3.20445347       0.22106496
H     -5.35845159      6.59019577     -7.12271287       0.20284519
3
800000  xi=  -0.04726678  Mean pot=  -107.62069491  Cent pot=  -109.48712037 kcal/mol
H      1.36765424      4.39245692      2.97784726       0.15841850
H      0.96690280      4.20966822      3.56822866       0.18381123
H     -2.33455703     -8.60212514     -6.54607592       0.19431294
3
900000  xi=  -0.06135313  Mean pot=  -105.79149913  Cent pot=  -109.49753860 kcal/mol
H      4.25210080      1.14597979      3.21216033       0.20355429
H      4.63662222      0.53658794      3.38459656       0.20144332
H     -8.88872303     -1.68256773     -6.59675689       0.24559053
3
1000000  xi=  -0.04873146  Mean pot=  -107.56989384  Cent pot=  -108.94414903 kcal/mol
H      2.52174960      4.53079066     -2.38704232       0.14590039
H      2.45984654      3.92250507     -2.74093920       0.18042580
H     -4.98159614     -8.45329573      5.12798152       0.15616644
3
1100000  xi=  -0.04475642  Mean pot=  -107.28992127  Cent pot=  -109.41484760 kcal/mol
H      3.67827102     -4.05391527      1.65031508       0.14628129
H      2.92720104     -4.11273746      1.71322935       0.15934925
H     -6.60547206      8.16665273     -3.36354444       0.17606135
3
1200000  xi=  -0.04967323  Mean pot=  -106.53305689  Cent pot=  -108.79976629 kcal/mol
H     -3.69930799      3.51338196     -1.29359856       0.19266840
H     -4.18525373      3.95690375     -0.86614880       0.19596665
H      7.88456173     -7.47028570      2.15974736       0.20638815
3
1300000  xi=  -0.04642040  Mean pot=  -105.75630660  Cent pot=  -109.49000886 kcal/mol
H      1.16350803     -5.17782856      1.61324369       0.16879411
H      1.59348868     -5.19947410      1.00404775       0.18525063
H     -2.75699671     10.37730266     -2.61729145       0.22197101
3
1400000  xi=  -0.04879756  Mean pot=  -107.15280454  Cent pot=  -107.07863735 kcal/mol
H      0.08275229     -4.83236426     -2.60668013       0.17386114
H     -0.11852402     -4.59844054     -3.20253623       0.21147408
H      0.03577173      9.43080480      5.80921636       0.19762801
3
1500000  xi=  -0.05028115  Mean pot=  -107.08147256  Cent pot=  -109.34453083 kcal/mol
H      0.69930333     -3.99384831     -4.07098663       0.15964611
H      0.44322359     -4.14159532     -3.36947397       0.18604949
H     -1.14252692      8.13544363      7.44046060       0.19274460
3
1600000  xi=  -0.04476986  Mean pot=  -107.44116371  Cent pot=  -109.17903854 kcal/mol
H      3.25772821     -4.27736819     -1.18921352       0.15023187
H      2.71599851     -4.59359464     -1.53173814       0.18238813
H     -5.97372673      8.87096283      2.72095167       0.16439109
3
1700000  xi=  -0.04813915  Mean pot=  -105.79857054  Cent pot=  -109.36510634 kcal/mol
H      2.27237450      5.11419060     -1.05471228       0.15412197
H      2.75421659      4.54094860     -0.92576006       0.17534865
H     -5.02659109     -9.65513920      1.98047234       0.18220751
3
1800000  xi=  -0.05427094  Mean pot=  -105.98145173  Cent pot=  -108.49389984 kcal/mol
H      1.31952937      3.63780019      3.61333489       0.16822905
H      2.03308354      3.88972670      3.85252695       0.19129416
H     -3.35261291     -7.52752690     -7.46586185       0.17888992
3
1900000  xi=  -0.06377953  Mean pot=  -105.39800542  Cent pot=  -108.87031351 kcal/mol
H      1.69052935     -5.35239515     -0.51271825       0.14263342
H      2.06936779     -5.21835737      0.15842818       0.17976456
H     -3.75989714     10.57075252      0.35429007       0.17857739
3
2000000  xi=  -0.05093524  Mean pot=  -106.59385679  Cent pot=  -109.46044748 kcal/mol
H      1.01782939     -4.77945855      2.29692494       0.23587236
H      0.99956094     -4.74012137      3.02787392       0.25265305
H     -2.01739032      9.51957992     -5.32479885       0.27551050
