96
100000  xi=   0.64868337  Mean pot=  -107.74705010  Cent pot=  -109.26953901 kcal/mol
H     -0.18754501      0.62964020     -1.85664335     -1.53301330e+00   -4.83303608e-01    5.49202016e+00       -1.26863042     -7.43859633     -0.46333576  
H     -0.15512164      0.57143515     -1.80061688     -1.09793115e+01    2.26126649e+00    6.15659651e+00       -0.48685365    -11.14009146      0.23234275  
H     -0.14774831      0.60411404     -1.76752187     -1.13364340e+01   -4.20030393e+00    4.63539375e+00        1.23080767      5.34026205     -0.23243591  
H     -0.17569065      0.60981858     -1.76056893     -8.29589574e+00    5.29767820e+00   -7.67411314e+00        3.26724486     20.76513878     -0.35130484  
H     -0.20326902      0.59910364     -1.73804641      7.57645739e+00    1.18919995e+00    9.43466876e+00       -1.60249417     -4.45050588      0.31461835  
H     -0.27829493      0.76307582     -1.83233283      1.99369309e+00   -2.69324186e+00    1.06314787e+01        7.65015016     16.83960076      2.04257862  
H     -0.25480646      0.83391431     -1.89852103     -3.93142046e+00    2.52394173e+00    2.62025779e+00       -6.50562677    -17.52086300     -1.19874095  
H     -0.28446613      0.79375249     -1.88264541      2.23575200e+00   -4.29479498e+00   -1.58434764e+01       -7.79779239    -20.13255475     -1.95963765  
H     -0.36346371      0.77076891     -1.77842912     -4.19218166e+00    1.59331665e+00   -1.04063339e+01       -9.41007138    -14.41850042      2.06772170  
H     -0.47358253      0.82440338     -1.76927887      7.82889758e+00   -6.88355337e+00   -1.00494373e+01       11.39712433     21.18537675     -1.08171560  
H     -0.44812718      0.82593566     -1.90451554     -2.67108359e+00   -1.19230127e+01    1.10454817e+01       58.95841463    113.87947058     35.23959041  
H     -0.55193980      0.80801760     -1.88367115     -3.09990612e+00    1.84358974e+00    2.81742011e+00      -17.44026761    -31.36777062     -5.82748532  
H     -0.55017724      0.73559701     -1.79003975      7.70279867e+00   -1.70719275e+00   -6.33857362e+00       -7.15244380    -23.34348964     -2.25319198  
H     -0.67325405      0.72479612     -1.84632273     -8.27237555e+00   -2.72867961e+00   -1.66565351e+01      -22.04138338    -42.14278931     -3.01449568  
H     -0.69465917      0.68496988     -1.81900423     -1.78199303e+01    6.19730270e+00    1.69518513e+01      -32.29164724    -67.27039340     -7.70055974  
H     -0.58969322      0.64648073     -1.63105408      2.18128113e+00    5.90174438e+00    7.21821552e+00      -28.06578899    -69.85241897     16.82544813  
H     -0.56683016      0.76473743     -1.65429563     -7.18230486e+00   -1.50309346e+01    9.99453304e-01      -25.47658397    -51.21415456     14.47893178  
H     -0.57734562      0.76023706     -1.63012599     -7.61408828e+00   -1.23371031e-01    6.84654454e+00       -7.98057696    -18.18692628      4.98605530  
H     -0.57125281      0.63153054     -1.67739854      3.50374962e+00   -1.36489933e+01    5.42103341e+00      -31.65485871    -65.10519134      0.17006479  
H     -0.66604344      0.63829231     -1.65293153     -1.07673749e+01   -7.83824882e+00    7.21185468e+00      -42.16061465    -58.20879138      3.71216167  
H     -0.65171209      0.65140957     -1.60574686      3.20429391e+00   -3.95858884e+00   -7.57930206e+00      -27.44337453    -38.86653705      6.29930463  
H     -0.56183390      0.60716444     -1.60832404      1.99996880e+00    7.28583243e+00    3.76754579e+00       -9.24828588    -17.84116859      2.84246400  
H     -0.42093416      0.65857588     -1.64957543      2.13060553e+00    1.06303388e+01   -1.19581175e+01       16.35473202     40.43619155     -2.03930867  
H     -0.34666942      0.66549251     -1.63880613      1.29001925e+01    1.34148773e+01    2.18886536e+00        0.56025970      1.99704250      0.05047058  
H     -0.23579727      0.59119931     -1.69214913     -2.70209108e+00    1.84764569e+00   -2.97458358e+00       -9.77148786    -64.05210433     -9.55850365  
H     -0.24669185      0.66777437     -1.86221558      1.54471515e+01    5.37430325e+00    5.85091755e+00       -5.93630018    -17.90678309     -5.00016074  
H     -0.25715361      0.76364142     -1.87641414      4.34223918e+00   -2.06726291e+00    3.46378522e-01       -9.18442382    -40.32337567    -12.51524707  
H     -0.29072365      0.73558263     -1.71044222     -4.86826546e+00   -1.59820055e+01    5.38868740e+00        6.15472678     15.43606377     -1.35811525  
H     -0.28910824      0.67293332     -1.73312499     -4.42385085e+00    7.57143407e+00    1.29219288e+00       -0.93348800     -2.99638996      0.36825808  
H     -0.27299551      0.59890793     -1.75695237      1.39113368e+00    7.31425341e+00   -9.33318021e+00       -4.44287926    -11.12857427     -0.47223484  
H     -0.34436783      0.54204812     -1.68976104      1.03417518e+01   -9.67094210e+00   -2.82704043e+00      -23.22415129    -69.75554227      5.49906513  
H     -0.33859872      0.54606560     -1.79398923      7.49761918e-02   -7.86722610e+00    9.00716221e-01      -20.46069082    -56.30628428      2.85410222  
H     -0.06153704      1.36860025     -1.81070498      7.82265203e+00   -3.03363749e-01   -1.50956111e+01        1.26849462      7.43910862      0.46233522  
H     -0.12214821      1.32626195     -1.81644753     -9.16615136e+00   -8.45096515e+00    2.78182213e-01        0.48668181     11.14066918     -0.23353456  
H      0.01725906      1.31983384     -1.79848673     -2.79996143e+00    6.83902826e-03   -1.14024273e+01       -1.23099865     -5.33960061      0.23113302  
H     -0.06407356      1.31912941     -1.77250931      1.05260642e+01   -2.66855164e+00   -5.20454575e+00       -3.26744104    -20.76426508      0.34964766  
H      0.04931137      1.30082367     -1.78791178     -9.35756953e+00    4.90920545e+00    8.76426012e+00        1.60226819      4.45136276     -0.31625093  
H      0.01799068      1.41522998     -1.75319007     -3.17806466e+00    1.25435973e+01    4.00439396e+00       -7.65034737    -16.83881302     -2.04391668  
H      0.01129281      1.55061300     -1.84953148      1.08911789e+01   -9.87404184e+00    1.46979535e+00        6.50541639     17.52160948      1.19743026  
H     -0.00739870      1.50912509     -1.81304682      2.14031475e+00   -7.35906577e+00    8.63253404e+00        7.79761035     20.13321225      1.95853327  
H      0.05115364      1.40611410     -1.86959706     -9.02366197e+00   -4.63098640e+00    1.39046772e+00        9.40982303     14.41927582     -2.06906314  
H     -0.13516480      1.45342727     -1.80135769     -7.93787453e+00    4.27066391e+00    3.74052070e+00      -11.39740188    -21.18450807      1.08028859  
H     -0.16812166      1.36676931     -1.73715253      4.26004350e+00    9.95347238e+00   -5.02126439e+00      -58.95861509   -113.87860201    -35.24091329  
H     -0.17143124      1.49241438     -1.75654814      1.75681419e-01    4.39256197e+00    1.39813035e+01       17.43997798     31.36877096      5.82590679  
H     -0.32425889      1.47298432     -1.71891253     -2.62370484e+00   -4.36972903e+00   -1.58373192e+01        7.15209114     23.34458347      2.25136833  
H     -0.29687755      1.44444450     -1.79486984     -3.02408418e+00   -4.33755067e+00   -2.18037110e+00       22.04101631     42.14390542      3.01261950  
H     -0.31595916      1.47389774     -1.72870952     -1.37502077e+00    2.13617064e+01   -1.42244052e+01       32.29125845     67.27150483      7.69872174  
H     -0.26718189      1.44920064     -1.82442768      3.25023728e+00   -5.24435010e+00    1.43926634e+01       28.06534537     69.85341764    -16.82732370  
H     -0.20519371      1.49174134     -1.85985284      4.01725912e-01   -3.14242885e+00   -2.63136252e+00       25.47623250     51.21497757    -14.48052319  
H     -0.27784400      1.44284170     -1.81732887     -6.27335043e-01    1.01869650e+00   -1.81388609e+00        7.98023088     18.18764081     -4.98758301  
H     -0.18999535      1.41568528     -1.67946324     -9.30776346e+00   -2.40827782e+00   -3.41235738e+00       31.65451341     65.10616944     -0.17193819  
H     -0.15597877      1.34252391     -1.69785967     -3.96658515e+00    1.53142443e+00   -5.95437279e+00       42.16021419     58.20987773     -3.71422929  
H     -0.18603554      1.31094714     -1.71267004     -4.36114489e+00   -2.50301006e+00    2.57669723e+00       27.44290158     38.86769458     -6.30152511  
H     -0.21176877      1.28255714     -1.71600385     -2.12610931e+00   -2.27003239e+00    6.67027946e+00        9.24784811     17.84229850     -2.84476384  
H     -0.16013596      1.30335765     -1.68206451      6.82671179e+00   -5.33213247e+00   -2.90004843e+00      -16.35507121    -40.43515127      2.03728603  
H     -0.14687995      1.37687769     -1.62005046     -6.77095194e+00    6.25991185e+00   -6.74506169e-01       -0.56060167     -1.99579832     -0.05294693  
H     -0.10850562      1.42562698     -1.56765301      3.23169061e+00    5.53276319e+00   -1.36153230e+00        9.77119794     64.05340184      9.55604511  
H     -0.01334275      1.37169990     -1.66569734     -1.39380086e+00   -1.08549791e+01   -4.32204520e+00        5.93614680     17.90767010      4.99860588  
H     -0.08596500      1.51524676     -1.64315574      3.30273532e-01   -9.55395663e+00   -1.20714326e+01        9.18425082     40.32425840     12.51373491  
H     -0.02391507      1.40466715     -1.76923135      5.96923001e+00   -2.46379689e+00    2.61463981e+00       -6.15498799    -15.43507854      1.35622071  
H     -0.06902479      1.37982603     -1.82042693      3.74913038e+00    1.59821259e+01    1.68474580e+01        0.93322019      2.99722623     -0.36996056  
H      0.00737611      1.30125701     -1.72723164      4.21379925e+00    1.11007087e+01    5.52794478e+00        4.44266154     11.12945471      0.47060562  
H     -0.06847288      1.37073769     -1.75510712      5.06867743e+00    6.61951552e+00    9.48477671e-01       23.22390309     69.75635392     -5.50068761  
H     -0.05210046      1.33450329     -1.83397071      8.71132615e+00    7.90999148e+00   -1.90820955e+00       20.46047720     56.30694174     -2.85541512  
H      0.58918544     -2.15202121      3.75823513      1.76490035e+01    7.20607401e+00   -1.11209272e+00        0.00013580     -0.00051229      0.00100054  
H      0.63482869     -2.16778018      3.70159595     -2.99769024e+00   -9.60995701e+00   -4.11861535e+00        0.00017184     -0.00057772      0.00119181  
H      0.62527916     -2.19517664      3.61573499      5.17158912e+00    2.09036066e+01    3.19857828e+00        0.00019098     -0.00066144      0.00130289  
H      0.43885287     -2.20570958      3.49295222      3.43281016e+00    1.03705853e+01    1.43678305e+00        0.00019617     -0.00087370      0.00165718  
H      0.51392894     -2.19444856      3.52698972      4.51041458e+00   -8.32793439e+00    8.66123361e+00        0.00022598     -0.00085688      0.00163259  
H      0.58873209     -2.15288161      3.47452472      8.96656133e-01   -8.82521140e+00    4.91393448e+00        0.00019722     -0.00078774      0.00133806  
H      0.64649265     -2.05958925      3.42172140     -2.59955350e+00    7.21299105e+00    6.93010302e+00        0.00021038     -0.00074647      0.00131069  
H      0.65167784     -2.25459105      3.48412562      2.44484403e+00   -7.52217109e-01   -8.01640326e-01        0.00018204     -0.00065750      0.00110438  
H      0.59675072     -2.24281433      3.42695303     -1.04549696e+01   -5.69129569e-01    1.62191595e+00        0.00024835     -0.00077539      0.00134144  
H      0.53815985     -2.25185903      3.33780509     -1.45693467e+01   -7.37842667e+00    2.02503302e+00        0.00027755     -0.00086868      0.00142702  
H      0.45708242     -2.26946222      3.27714271     -5.04122679e+00   -3.48016035e+00   -2.40750404e+00        0.00020045     -0.00086857      0.00132288  
H      0.53195099     -2.17261794      3.28054911     -9.61425659e+00    2.69658942e-01    8.25632495e+00        0.00028963     -0.00100034      0.00157854  
H      0.48203472     -2.15790970      3.31262589      6.68370087e+00   -5.28569730e+00    9.06975371e+00        0.00035266     -0.00109383      0.00182365  
H      0.43301694     -2.11099592      3.27783144      1.61976145e+00    5.80091179e-03    7.42789177e+00        0.00036707     -0.00111611      0.00187618  
H      0.51686289     -2.14490978      3.33297349     -7.15046501e+00   -9.27887306e+00    9.64777335e+00        0.00038879     -0.00111143      0.00183799  
H      0.56679271     -2.16587640      3.47119742     -4.83656985e+00   -7.23321910e-01   -8.28685766e+00        0.00044362     -0.00099866      0.00187558  
H      0.49718822     -2.06267857      3.55684970      7.09247287e+00    3.56667142e+00   -1.72125413e+00        0.00035147     -0.00082300      0.00159142  
H      0.53978160     -1.87755082      3.68565534      3.00650788e+00    1.66905281e+00    7.33295087e-01        0.00034608     -0.00071453      0.00152771  
H      0.51237738     -1.92769322      3.63500123      2.10306559e-01    7.59316448e+00   -4.41552054e+00        0.00034530     -0.00097810      0.00187340  
H      0.50193517     -1.91327090      3.58618163      6.96908606e+00    1.60637404e+01    4.79641643e+00        0.00040045     -0.00108634      0.00206762  
H      0.52840702     -1.92150583      3.53290145      1.44066030e+01   -4.30204696e+00   -7.59638406e-01        0.00047295     -0.00115753      0.00222048  
H      0.44241073     -1.89950099      3.56225932      6.75190050e+00    6.51013545e+00   -6.17540643e+00        0.00043777     -0.00112991      0.00229984  
H      0.46832468     -1.95986062      3.53354648      2.02096439e+00   -6.21286495e+00    3.92889865e+00        0.00033919     -0.00104028      0.00202264  
H      0.39140432     -1.83193745      3.51936346     -4.86094545e+00    1.09340739e+01    2.31201781e+00        0.00034197     -0.00124417      0.00247635  
H      0.40864978     -1.93038011      3.52624547      7.67138823e+00    6.22631614e+00   -8.06342920e+00        0.00028992     -0.00129751      0.00245854  
H      0.37707167     -2.06926541      3.54173196     -6.21313275e+00    7.47298859e+00    2.21283353e+00        0.00015339     -0.00088702      0.00155487  
H      0.42541595     -2.01417940      3.54182487     -1.00017155e+01   -8.64165904e+00   -1.45842334e+00        0.00017300     -0.00088273      0.00151217  
H      0.42660505     -1.98601630      3.51132570     -7.66707556e+00   -3.04633995e+00   -8.69453296e+00        0.00026121     -0.00098523      0.00189454  
H      0.51376805     -2.00829039      3.55639648      9.62307743e+00    9.09415041e+00   -1.14222337e+00        0.00026781     -0.00083627      0.00170247  
H      0.49624126     -2.12590242      3.56465457      2.43442345e+01    2.42055469e+00   -3.85970348e+00        0.00021772     -0.00088044      0.00162923  
H      0.48869536     -2.10416033      3.67178433      4.10105419e+00   -1.64971882e+00   -1.78547300e+01        0.00024820     -0.00081164      0.00162249  
H      0.57491980     -2.12954584      3.67395610      9.12046576e+00    1.03527545e+01    2.48713520e+00        0.00021362     -0.00065746      0.00131290  
