3
100000  xi=   0.41004816  Mean pot=  -105.34293545  Cent pot=  -109.48690877 kcal/mol
H      0.80163700      2.61878019     -1.80721924       0.22352403
H      0.24225430      2.88904537     -1.39281247       0.17402672
H     -1.04389130     -5.50782557      3.20003170       0.19079024
3
200000  xi=   0.41695520  Mean pot=  -105.80131599  Cent pot=  -109.35350357 kcal/mol
H     -2.73273607      1.34476213     -0.63024695       0.18565279
H     -3.18440646      0.93329660     -0.24307617       0.13562306
H      5.91714253     -2.27805873      0.87332312       0.29316528
3
300000  xi=   0.40784683  Mean pot=  -105.87241517  Cent pot=  -108.34134976 kcal/mol
H      1.72985030     -2.02860476     -2.08119232       0.16159221
H      2.19035992     -1.74246019     -1.49610425       0.16159361
H     -3.92021022      3.77106495      3.57729657       0.21038478
3
400000  xi=   0.41497903  Mean pot=  -106.51151890  Cent pot=  -109.29925870 kcal/mol
H     -1.31724127      0.39702980      2.84544501       0.21055417
H     -0.75211694      0.84057817      3.10557965       0.23969766
H      2.06935821     -1.23760797     -5.95102466       0.19889938
3
500000  xi=   0.41384664  Mean pot=  -105.15265446  Cent pot=  -108.18547399 kcal/mol
H     -1.47169201     -1.93450141      1.84987762       0.25634927
H     -2.09603121     -1.73593047      2.06175979       0.21292268
H      3.56772322      3.67043188     -3.91163741       0.13797092
3
600000  xi=   0.41066582  Mean pot=  -105.61036475  Cent pot=  -108.69127247 kcal/mol
H      2.07050845     -2.93726847      0.30897289       0.19037693
H      1.99106010     -2.17236029      0.13724913       0.15455581
H     -4.06156855      5.10962877     -0.44622202       0.12768614
3
700000  xi=   0.40068525  Mean pot=  -106.90900421  Cent pot=  -109.46578430 kcal/mol
H      0.55790174     -0.92365566     -3.48863965       0.14491827
H      0.31102821     -1.03180909     -2.78820450       0.20328423
H     -0.86892996      1.95546475      6.27684415       0.16094554
3
800000  xi=   0.41515938  Mean pot=  -105.18313600  Cent pot=  -108.30508324 kcal/mol
H      0.21736788      3.44054044     -0.13824745       0.15995727
H     -0.09451602      2.99715380      0.29010937       0.13719262
H     -0.12285186     -6.43769424     -0.15186192       0.19737357
3
900000  xi=   0.41166875  Mean pot=  -106.59874626  Cent pot=  -109.49178847 kcal/mol
H     -1.73268521      1.56655157      1.94847021       0.17038981
H     -2.35254207      1.90460448      1.70931119       0.17792221
H      4.08522728     -3.47115606     -3.65778140       0.24699358
3
1000000  xi=   0.41393340  Mean pot=  -107.13599576  Cent pot=  -109.35413232 kcal/mol
H      0.61423498      2.94370351     -1.50901101       0.13932163
H     -0.04696495      2.66423992     -1.59835710       0.17540118
H     -0.56727003     -5.60794343      3.10736810       0.14645406
3
1100000  xi=   0.40932891  Mean pot=  -106.80284065  Cent pot=  -109.43553183 kcal/mol
H      3.14934673     -0.71140487      0.39547153       0.18077602
H      3.07434384     -0.98022259     -0.27856290       0.22266749
H     -6.22369057      1.69162746     -0.11690862       0.17760239
3
1200000  xi=   0.41441885  Mean pot=  -107.05479145  Cent pot=  -109.39641842 kcal/mol
H      1.99948608      2.38605785      1.16850076       0.15293509
H      2.22388075      2.14872984      0.51984612       0.20748935
H     -4.22336683     -4.53478769     -1.68834688       0.18138419
3
1300000  xi=   0.40348080  Mean pot=  -106.33886143  Cent pot=  -109.49776224 kcal/mol
H      1.89609702     -1.01719624      2.25988023       0.18957726
H      2.55305436     -0.67379309      2.25239980       0.18419776
H     -4.44915138      1.69098934     -4.51228003       0.28924183
3
1400000  xi=   0.39274099  Mean pot=  -107.23599154  Cent pot=  -109.49611029 kcal/mol
H     -2.63551169     -0.09832188      1.42193915       0.18814503
H     -3.18800329     -0.08816797      1.91959905       0.15846591
H      5.82351498      0.18648985     -3.34153820       0.14851231
3
1500000  xi=   0.41089746  Mean pot=  -104.87286668  Cent pot=  -107.81684094 kcal/mol
H      3.29373088     -0.30186570     -1.40179824       0.17935526
H      2.72125786     -0.19209166     -1.04770852       0.11205582
H     -6.01498874      0.49395736      2.44950675       0.23462781
3
1600000  xi=   0.41639655  Mean pot=  -106.65384051  Cent pot=  -109.21592967 kcal/mol
H     -1.67490021     -1.56326369      2.06019575       0.17358743
H     -1.89056905     -2.16971380      1.74598064       0.27987162
H      3.56546927      3.73297749     -3.80617639       0.18452462
3
1700000  xi=   0.40709941  Mean pot=  -106.23618426  Cent pot=  -108.01915213 kcal/mol
H     -0.89612817     -2.48826914     -2.30185022       0.22375612
H     -1.06397520     -1.83637225     -2.17235120       0.23602862
H      1.96010338      4.32464139      4.47420142       0.16487777
3
1800000  xi=   0.41414123  Mean pot=  -106.59285516  Cent pot=  -108.61628250 kcal/mol
H      1.20038956      2.18945884      1.95819305       0.19374789
H      0.57551761      2.48910707      2.03889491       0.19429248
H     -1.77590717     -4.67856592     -3.99708797       0.19778291
3
1900000  xi=   0.41601359  Mean pot=  -106.59680411  Cent pot=  -107.53844096 kcal/mol
H     -1.50965454      1.77099377      2.00852948       0.17752516
H     -1.06678003      2.14269900      2.36186087       0.29086043
H      2.57643458     -3.91369277     -4.37039035       0.13452661
3
2000000  xi=   0.41204009  Mean pot=  -105.33359557  Cent pot=  -109.42931585 kcal/mol
H      2.73578590      1.90671382      0.18585335       0.17221299
H      2.76984305      1.45256199     -0.41589883       0.20926336
H     -5.50562895     -3.35927580      0.23004548       0.16701339
