3
100000  xi=   0.36805254  Mean pot=  -104.39531467  Cent pot=  -107.89551811 kcal/mol
H      1.11271961      2.95136352     -1.48169045       0.17302854
H      0.33478190      3.14567610     -1.37958158       0.20836744
H     -1.44750151     -6.09703961      2.86127204       0.19078860
3
200000  xi=   0.35590889  Mean pot=  -106.37612975  Cent pot=  -108.78843174 kcal/mol
H     -1.42234538      3.63960689     -0.33854997       0.21385781
H     -0.95990138      3.01683094     -0.21839904       0.18085098
H      2.38224675     -6.65643783      0.55694901       0.22507729
3
300000  xi=   0.37706010  Mean pot=  -107.05155260  Cent pot=  -109.49734667 kcal/mol
H      2.10679380     -2.45556956      1.28757452       0.15863768
H      1.47722318     -2.79850885      1.10179535       0.15374641
H     -3.58401699      5.25407840     -2.38936987       0.18569518
3
400000  xi=   0.36695782  Mean pot=  -106.31930377  Cent pot=  -109.49237068 kcal/mol
H      0.81411889     -0.52826905      3.29228842       0.20279071
H      0.37514463      0.03691593      3.47270328       0.22010504
H     -1.18926351      0.49135312     -6.76499170       0.24538569
3
500000  xi=   0.37806461  Mean pot=  -104.07505282  Cent pot=  -109.18295375 kcal/mol
H     -0.70055943     -2.96442787      0.54439396       0.17895806
H     -0.67393677     -3.57619202      1.01129733       0.16848075
H      1.37449620      6.54061989     -1.55569128       0.18735885
3
600000  xi=   0.37365945  Mean pot=  -104.41334898  Cent pot=  -109.15859148 kcal/mol
H      1.53422051      1.80838069     -2.55353652       0.19359240
H      1.91794282      1.20931805     -2.49442748       0.19855632
H     -3.45216333     -3.01769874      5.04796400       0.22398188
3
700000  xi=   0.37002404  Mean pot=  -106.58635619  Cent pot=  -109.47074531 kcal/mol
H     -3.38060067     -1.62046540      0.08569515       0.17438967
H     -2.92602059     -1.21261902     -0.32076998       0.11981499
H      6.30662126      2.83308442      0.23507483       0.20533259
3
800000  xi=   0.37442567  Mean pot=  -108.01966252  Cent pot=  -109.49773339 kcal/mol
H      2.31538836      2.61678140      0.77588066       0.14612000
H      1.92920570      2.66729425      0.14517882       0.17312520
H     -4.24459406     -5.28407564     -0.92105948       0.18796076
3
900000  xi=   0.36976929  Mean pot=  -105.18068607  Cent pot=  -109.49639982 kcal/mol
H      2.63810076     -0.60676108      2.22115391       0.19925426
H      2.38409870     -1.28226803      2.05843136       0.19545815
H     -5.02219946      1.88902911     -4.27958527       0.19020973
3
1000000  xi=   0.36957780  Mean pot=  -104.01637220  Cent pot=  -108.62017410 kcal/mol
H      0.21847868      3.21652447     -0.57439297       0.16232734
H      0.77702424      3.58710427     -0.15617868       0.20217974
H     -0.99550292     -6.80362874      0.73057165       0.19080402
3
1100000  xi=   0.36736223  Mean pot=  -106.49848419  Cent pot=  -108.33681229 kcal/mol
H     -3.20689071     -1.61922531      0.56026185       0.12888840
H     -2.62151684     -2.04178345      0.22078685       0.15612263
H      5.82840756      3.66100876     -0.78104871       0.14829633
3
1200000  xi=   0.37984199  Mean pot=  -108.07619593  Cent pot=  -109.25807654 kcal/mol
H      3.05999384      0.05801562      0.11485313       0.18498011
H      3.77104300     -0.04223392      0.12689101       0.16008291
H     -6.83103684     -0.01578170     -0.24174414       0.16658945
3
1300000  xi=   0.36137357  Mean pot=  -107.30186265  Cent pot=  -109.49174787 kcal/mol
H     -3.09546001      1.43963048     -1.85822363       0.15964602
H     -2.50387312      1.15112120     -1.50822565       0.16716140
H      5.59933313     -2.59075168      3.36644928       0.14846794
3
1400000  xi=   0.36188612  Mean pot=  -106.53554700  Cent pot=  -109.38804952 kcal/mol
H     -2.57673710     -2.70870700     -0.01715335       0.20821615
H     -1.85155666     -2.69273759      0.00291667       0.17790809
H      4.42829376      5.40144459      0.01423668       0.17234263
3
1500000  xi=   0.36733358  Mean pot=  -105.01347701  Cent pot=  -109.45920358 kcal/mol
H      0.19281105     -2.40823406      2.32831548       0.16666727
H     -0.40690797     -2.80453745      2.18969004       0.14360097
H      0.21409692      5.21277151     -4.51800552       0.17070301
3
1600000  xi=   0.37238556  Mean pot=  -105.19889597  Cent pot=  -109.38451327 kcal/mol
H     -2.90659097      1.55968085     -1.74676669       0.18973493
H     -2.54380453      0.93899290     -1.65026724       0.21893636
H      5.45039550     -2.49867375      3.39703393       0.17313944
3
1700000  xi=   0.37362420  Mean pot=  -105.07263661  Cent pot=  -108.07115830 kcal/mol
H      1.49435731     -2.38797084     -1.88994809       0.12390323
H      0.95227786     -2.79467041     -1.78066428       0.17406409
H     -2.44663517      5.18264125      3.67061237       0.17073513
3
1800000  xi=   0.36933116  Mean pot=  -106.76945153  Cent pot=  -108.57229982 kcal/mol
H     -1.03015156     -3.08583326      0.72793537       0.22776066
H     -0.45773446     -3.47857607      0.66943432       0.26125822
H      1.48788602      6.56440933     -1.39736969       0.21147144
3
1900000  xi=   0.37177212  Mean pot=  -107.02622622  Cent pot=  -109.40674764 kcal/mol
H     -1.92728060      0.48701489      2.61376788       0.21018430
H     -2.14007494      1.21128463      2.66606031       0.15897198
H      4.06735553     -1.69829952     -5.27982820       0.17063991
3
2000000  xi=   0.36881856  Mean pot=  -107.43584497  Cent pot=  -109.44455471 kcal/mol
H     -2.18531272      0.09781302      3.07842732       0.15530150
H     -1.53662926     -0.03885898      2.77173943       0.17490994
H      3.72194198     -0.05895404     -5.85016676       0.22167111
