3
100000  xi=  -0.09498151  Mean pot=  -107.06114391  Cent pot=  -109.41129464 kcal/mol
H     -3.76441949      0.08152331      4.77981212       0.13153287
H     -3.61320716     -0.12670124      4.06863730       0.18064196
H      7.37762664      0.04517793     -8.84844942       0.17787184
3
200000  xi=  -0.08879235  Mean pot=  -106.44113519  Cent pot=  -107.95082429 kcal/mol
H      4.59898565     -3.80551812     -0.12245358       0.24000269
H      4.45022295     -3.21863690     -0.44136652       0.25500773
H     -9.04920860      7.02415502      0.56382010       0.18042263
3
300000  xi=  -0.08892350  Mean pot=  -107.95414298  Cent pot=  -109.44582280 kcal/mol
H      2.27842801     -2.43180121     -4.60056168       0.14010619
H      2.90232270     -2.68961211     -4.26703973       0.13727774
H     -5.18075071      5.12141332      8.86760142       0.19398679
3
400000  xi=  -0.09311021  Mean pot=  -105.55584153  Cent pot=  -108.79265720 kcal/mol
H     -3.00102221     -3.48949406     -2.93355767       0.18712321
H     -3.07427168     -4.26806768     -2.99977124       0.13225211
H      6.07529389      7.75756173      5.93332891       0.28557322
3
500000  xi=  -0.08774267  Mean pot=  -107.67666874  Cent pot=  -108.80890164 kcal/mol
H      2.56284165      4.84291705     -1.31550582       0.16840188
H      2.59033393      5.19664746     -0.70910355       0.16268463
H     -5.15317558    -10.03956451      2.02460937       0.16127991
3
600000  xi=  -0.10285153  Mean pot=  -107.53351986  Cent pot=  -109.46606671 kcal/mol
H      3.06402935     -0.29223748     -4.85894702       0.16739973
H      2.50048276     -0.39641868     -5.31589108       0.15362309
H     -5.56451211      0.68865616     10.17483810       0.20208000
3
700000  xi=  -0.09567489  Mean pot=  -107.43833250  Cent pot=  -109.49292677 kcal/mol
H      1.43516637      2.07097093      5.21670275       0.15120273
H      0.97515886      2.63318106      5.05112723       0.18117679
H     -2.41032523     -4.70415199    -10.26782998       0.19679151
3
800000  xi=  -0.09088883  Mean pot=  -107.88694210  Cent pot=  -109.13813148 kcal/mol
H     -1.17547936      5.73094343      0.25811645       0.16879782
H     -1.38045687      5.42135580      0.86689700       0.18252473
H      2.55593622    -11.15229923     -1.12501345       0.20996571
3
900000  xi=  -0.09271132  Mean pot=  -106.47832202  Cent pot=  -108.64127780 kcal/mol
H     -3.25469424      0.69443809     -4.61118746       0.15491280
H     -3.50651471      0.04705795     -4.68252505       0.19436813
H      6.76120896     -0.74149604      9.29371251       0.18531228
3
1000000  xi=  -0.08828583  Mean pot=  -108.40979610  Cent pot=  -108.89739532 kcal/mol
H      0.80612321     -5.90598661      0.21686531       0.18040343
H      1.05045428     -5.37552327      0.61186481       0.15447071
H     -1.85657749     11.28150988     -0.82873013       0.18887355
3
1100000  xi=  -0.09009613  Mean pot=  -107.34527523  Cent pot=  -109.49648297 kcal/mol
H     -4.52268301     -3.22288784      1.80081961       0.20629400
H     -4.58840854     -3.15980819      1.06656832       0.18932957
H      9.11109155      6.38269603     -2.86738793       0.20358672
3
1200000  xi=  -0.09529795  Mean pot=  -106.12167725  Cent pot=  -109.40196910 kcal/mol
H      0.43632793     -4.49797985     -3.48271538       0.19295062
H      0.89084345     -4.21207497     -3.97232823       0.18584428
H     -1.32717139      8.71005483      7.45504361       0.14701612
3
1300000  xi=  -0.09308395  Mean pot=  -105.65822587  Cent pot=  -109.32163236 kcal/mol
H      3.99896803     -3.99723530     -0.92959628       0.20008053
H      3.70934377     -4.19624583     -1.55968773       0.16480380
H     -7.70831180      8.19348112      2.48928401       0.17377508
3
1400000  xi=  -0.08134129  Mean pot=  -106.43593173  Cent pot=  -109.38085341 kcal/mol
H     -3.80339122     -4.02668765      0.55613943       0.14513197
H     -4.41271241     -3.73454038      0.90118494       0.19077007
H      8.21610363      7.76122803     -1.45732436       0.16488498
3
1500000  xi=  -0.09159624  Mean pot=  -107.27824963  Cent pot=  -109.49555219 kcal/mol
H      1.85495522     -4.85792030     -1.63516167       0.15842584
H      1.66302042     -5.57142051     -1.66135340       0.17124492
H     -3.51797565     10.42934081      3.29651508       0.19624743
3
1600000  xi=  -0.09002452  Mean pot=  -107.05069405  Cent pot=  -109.32808564 kcal/mol
H      3.03298257     -1.20854413      5.02461042       0.20518043
H      2.71184691     -1.59749010      4.50825558       0.26461893
H     -5.74482948      2.80603423     -9.53286600       0.18308182
3
1700000  xi=  -0.09060382  Mean pot=  -106.80983396  Cent pot=  -109.32907294 kcal/mol
H      0.49078318      4.91847341      3.34607543       0.18981868
H      1.04836256      4.46500806      3.09209445       0.17207098
H     -1.53914574     -9.38348147     -6.43816988       0.19170120
3
1800000  xi=  -0.08456350  Mean pot=  -107.57746064  Cent pot=  -108.18181171 kcal/mol
H      2.10049576     -4.34212795      2.38171820       0.21868647
H      2.33516682     -4.97658945      2.50984828       0.23530760
H     -4.43566258      9.31871741     -4.89156647       0.12576203
3
1900000  xi=  -0.08367265  Mean pot=  -107.74916658  Cent pot=  -109.49327810 kcal/mol
H     -4.89483762      2.71648843     -0.29637917       0.21693122
H     -5.21559858      2.45852156     -0.90934790       0.22668131
H     10.11043619     -5.17500999      1.20572706       0.15913376
3
2000000  xi=  -0.08998319  Mean pot=  -106.08299900  Cent pot=  -107.99851126 kcal/mol
H     -2.76204938      4.65586344      0.48352489       0.18039101
H     -2.79606775      5.32186440      0.64067542       0.21166705
H      5.55811713     -9.97772784     -1.12420031       0.20645894
