96
100000  xi=   0.37978898  Mean pot=  -106.68710608  Cent pot=  -109.49504998 kcal/mol
H      1.19853149      3.09695333     -1.48924806     -4.90453909e-01   -1.20168667e+01   -5.65174279e+00       61.22462533     36.25616681     22.12339263  
H      1.17194530      3.03364763     -1.45589417     -2.11336192e+01   -3.52510303e+00    6.33437793e+00       52.73149851     30.37626994     20.99395654  
H      1.22687916      3.01459319     -1.48071466     -5.97335437e+00    8.91004279e+00   -7.19715823e-01       13.34008860      6.81134886      3.57009122  
H      1.17082593      2.98799501     -1.47372229     -1.91432985e+00   -1.71933900e+00    6.77632534e+00       -8.39501516     -3.56205184     -2.01454804  
H      1.24063391      2.89837216     -1.44240077     -3.79344323e+00    1.12285767e+01    4.98872085e+00        8.54462266      1.54363729      2.56402745  
H      1.23036635      3.01497240     -1.46315297     -2.09136588e-01    1.22935759e+01    1.25112275e+01       54.65339486      5.71184861     15.86182082  
H      1.17524614      3.13736204     -1.49949964     -2.59664240e+00   -3.87833833e+00    1.76843344e+00        7.68012507      1.39747883      3.68468465  
H      1.14433095      3.15271775     -1.43577025      5.45236463e+00   -3.78880379e+00   -1.00100605e+01       33.51268455     11.96075439     20.23842520  
H      1.15355937      3.06997742     -1.37499649     -1.40096764e+01    3.72351601e-01   -9.19189879e+00       55.32581260     15.50339661     37.42627977  
H      0.99401935      3.04987494     -1.33615107      1.10072731e+00   -2.50095884e+00   -1.66615423e+01       42.42175562      3.37409697     29.68827149  
H      1.00616947      2.99235828     -1.39640145      1.19677376e+01    1.45308409e+00   -1.69010042e+00       43.83532555      1.47058926     26.20167698  
H      0.88056713      2.97756497     -1.32672957     -6.19754005e-01    2.30338778e+00    5.04587650e+00       27.88838884     -5.66361811     27.83717417  
H      0.76040782      2.85527491     -1.26321930     -3.25555598e+00   -5.20734306e+00   -1.82669874e+01       14.95364779     -8.46620007     17.61672224  
H      0.70346642      2.72592657     -1.32569617     -1.86652916e+00    3.43089141e-01   -1.17865870e+01       37.26690947    -40.00384359     46.27331107  
H      0.72040959      2.75132345     -1.30869220     -9.68893282e+00    1.25267236e+01    2.97727162e+00       38.28921171    -30.86393585     36.51305394  
H      0.80947357      2.80763967     -1.32623290      2.46832740e+00   -3.35251194e+00    1.34865469e+01      -21.26833057      9.59752972    -14.46645197  
H      0.90767856      2.98214695     -1.35188989      5.71249659e+00   -4.58725015e+00    7.90536140e+00       17.11126545     -1.56369587      9.87427042  
H      0.89138518      2.97754211     -1.30520270     -1.12065596e+01    1.11211615e+00    3.82869923e-01       45.11989675     -1.03739229     25.86683326  
H      0.89778304      2.96048864     -1.30675612      7.33759635e-01   -1.01920984e+01    6.54328491e-01      -21.86580756     -3.64643478    -10.90723043  
H      0.80771327      2.99546157     -1.28564501     -1.62565866e+01    2.83201243e-01    5.65123861e+00      -61.03529649    -28.76342946    -41.83436256  
H      0.96405913      2.94841435     -1.32787248      5.71900641e-01    7.52542270e+00   -6.72530984e+00       73.76263203     14.56698583     20.56848696  
H      0.88254901      2.82383131     -1.39245348     -6.81803635e+00    4.00096737e+00    2.04792878e+00     -143.39669153      2.43443388    -26.03398220  
H      0.97959867      2.93208359     -1.36368213      2.29813788e+00    2.41391383e+00   -6.45118386e+00      -91.60300152    -19.91746979    -26.21027622  
H      1.08182401      3.01260055     -1.28837771      1.02070770e+01    7.76813730e+00   -8.12586284e+00       38.95427453     11.40778279     13.51111406  
H      1.22409216      2.90200201     -1.32754235      9.21124212e+00    1.49428786e+01   -6.39039562e+00       75.41087162      1.63414883     15.35077939  
H      1.20867703      2.91076266     -1.45313922      6.70149170e+00   -2.37971958e+00   -1.93737759e+00       25.64095204      0.46927425      6.59170140  
H      1.22636358      3.09827674     -1.47103265     -3.13193129e+00   -5.79822307e+00    3.82761132e-04       77.89301333     13.34949997     13.36974114  
H      1.19184142      3.07998863     -1.37470305      3.92165210e-01   -6.41146506e+00    3.03700511e+00       63.28050365     20.55877895     24.70990684  
H      1.20015207      3.07381007     -1.48696219      8.24406615e+00    5.66951598e+00    1.10435497e+01       76.55804325     29.98194754     13.92400696  
H      1.13992755      3.01167133     -1.46690683      1.79917840e+00    6.13856238e+00    3.97646105e-01      -12.06031990     -6.89136131     -2.37618577  
H      1.09429128      3.07607689     -1.47712812      1.38989343e+01    1.26722117e+00    9.79041880e-01       44.36062766     30.87239918      4.09970232  
H      1.09266463      3.03332715     -1.54520812      7.11359937e+00    4.82170607e+00   -1.11392751e+01       24.29209499     15.57604382      4.08702986  
H      0.47694194      2.66964051     -1.74999301      7.09422009e+00    1.29537511e+01   -5.28914052e+00      -61.22462117    -36.25614942    -22.12340252  
H      0.47536002      2.63237593     -1.73322527      1.30033983e+00   -9.35421513e-01   -1.21987126e+00      -52.73149423    -30.37625171    -20.99396676  
H      0.56721230      2.67777256     -1.65725574     -7.85266392e+00   -1.13834539e+01   -7.38147496e+00      -13.34008417     -6.81133055     -3.57010120  
H      0.51396347      2.70928407     -1.63134893      4.46005029e+00    6.08071912e+00   -2.09847818e+01        8.39501996      3.56207043      2.01453826  
H      0.53000426      2.76999340     -1.65564342      2.32162110e+00   -3.40715280e+00    1.18842552e+01       -8.54461776     -1.54361856     -2.56403735  
H      0.43387701      2.93173111     -1.69431475     -6.59907529e-01   -7.16304268e-01    7.88866606e-01      -54.65339038     -5.71183021    -15.86183039  
H      0.50581620      3.01555305     -1.82067179      9.86729018e+00   -1.74146699e+00    9.98105236e-01       -7.68012071     -1.39746054     -3.68469420  
H      0.48836956      2.91860376     -1.83190769     -7.63787779e-01   -6.14316550e+00    1.46445263e+00      -33.51268067    -11.96073756    -20.23843392  
H      0.45867090      2.87525591     -1.84506811      1.10798951e+00   -1.67539944e+00   -1.15360089e+00      -55.32580836    -15.50337878    -37.42628891  
H      0.32181873      2.99641029     -1.80658135     -8.99526429e-01    1.61040219e+00    9.02437457e+00      -42.42175150     -3.37407874    -29.68828053  
H      0.30212114      2.96873898     -1.81723216     -1.00631877e+01   -1.69168391e+00    6.37911116e+00      -43.83532122     -1.47057086    -26.20168607  
H      0.32063743      3.09127659     -1.88563115     -1.99475206e+00    5.65968789e+00    1.04282482e+01      -27.88838460      5.66363711    -27.83718359  
H      0.28971982      3.12176145     -1.81773179      8.64837004e+00    8.54335688e-01   -5.24293073e+00      -14.95364318      8.46622009    -17.61673203  
H      0.25095641      3.21166987     -1.88756579     -9.11720995e+00   -5.67676019e+00   -8.38088866e+00      -37.26690399     40.00386548    -46.27332174  
H      0.19356248      3.17600145     -1.81110013     -9.19439394e+00    1.67540277e+01   -1.57648462e+00      -38.28920687     30.86395682    -36.51306428  
H      0.25819977      3.05640673     -1.70120224      3.27677091e+00    5.74083162e+00    6.78805779e+00       21.26833485     -9.59751005     14.46644189  
H      0.24489065      3.04271553     -1.73436021     -1.21823470e+01   -1.18620319e+01   -1.08607601e+01      -17.11126115      1.56371488     -9.87428048  
H      0.17799530      2.99394447     -1.71418284      3.27845879e+00    1.50971084e+00    3.31444004e+00      -45.11989217      1.03741295    -25.86684468  
H      0.26553542      2.85505203     -1.62213738     -6.22506927e+00   -4.13494763e+00    2.43395479e-02       21.86581253      3.64645614     10.90721885  
H      0.29486157      2.75377553     -1.63715997      1.83434586e+00   -4.86777750e+00   -5.72001199e+00       61.03530165     28.76345164     41.83435063  
H      0.12274174      2.78226722     -1.56247137     -1.41573850e+00   -1.22572509e+01    3.84719607e-01      -73.76262685    -14.56696295    -20.56849912  
H      0.26843989      2.83425693     -1.50394630      7.00358222e+00    2.73997445e+00    7.06761411e+00      143.39669714     -2.43441093     26.03396983  
H      0.36389177      2.79820882     -1.53985369      6.97200748e+00    4.61063559e+00   -9.74549989e+00       91.60300694     19.91749150     26.21026472  
H      0.34918789      2.79804781     -1.54248936     -3.76417825e+00    1.36348803e+01    8.31375212e+00      -38.95426859    -11.40776024    -13.51112602  
H      0.35618443      2.88319463     -1.50421536     -8.37062274e+00   -5.83884654e+00    7.25143499e-01      -75.41086581     -1.63412723    -15.35079073  
H      0.45582916      2.89698451     -1.64667934      7.66630087e+00   -1.37360367e+00    2.13103348e+00      -25.64094687     -0.46925531     -6.59171151  
H      0.35510806      2.94895888     -1.62057707      8.11614475e+00   -4.09692975e+00   -1.30462425e+01      -77.89300853    -13.34948132    -13.36975102  
H      0.41807176      2.82860389     -1.67684635      1.02209235e+00   -1.03093938e+01    3.62693956e+00      -63.28049846    -20.55875918    -24.70991733  
H      0.36628489      2.74724796     -1.63862197     -8.60501018e+00    1.96138682e+01    5.77338679e+00      -76.55803841    -29.98192761    -13.92401780  
H      0.51903611      2.65688884     -1.58923785      4.11607381e+00    1.39979401e+01   -5.53450214e+00       12.06032472      6.89138087      2.37617517  
H      0.41741457      2.60501038     -1.53968346      1.82642639e+00   -2.58959526e+00   -4.18961332e+00      -44.36062307    -30.87237914     -4.09971351  
H      0.44123127      2.61562947     -1.65480878      1.98303911e+00   -3.05346766e+00    8.80896534e+00      -24.29209065    -15.57602474     -4.08704064  
H     -1.33538584     -5.92034623      3.33021887      1.73362389e+01    5.48007408e+00    2.17346300e-01       -0.00000416     -0.00001738      0.00000988  
H     -1.28975448     -5.93615117      3.27358742     -3.30918329e+00   -1.13352876e+01   -2.79285846e+00       -0.00000428     -0.00001823      0.00001021  
H     -1.29927246     -5.96354882      3.18771148      4.85870091e+00    1.91796094e+01    4.53146794e+00       -0.00000443     -0.00001831      0.00000997  
H     -1.48574112     -5.97407213      3.06498434      3.12074345e+00    8.64104584e+00    2.76320373e+00       -0.00000479     -0.00001859      0.00000979  
H     -1.41062881     -5.96288021      3.09899595      4.19783983e+00   -1.00515229e+01    9.99406966e+00       -0.00000489     -0.00001873      0.00000989  
H     -1.33583843     -5.92125885      3.04656305      5.83305715e-01   -1.05538937e+01    6.24164362e+00       -0.00000449     -0.00001840      0.00000957  
H     -1.27808331     -5.82801767      2.99376459     -2.91044574e+00    5.48620337e+00    8.26015325e+00       -0.00000436     -0.00001828      0.00000955  
H     -1.27286465     -6.02298787      3.05614377      2.13036179e+00   -2.47817444e+00    5.30226051e-01       -0.00000388     -0.00001684      0.00000872  
H     -1.32782765     -6.01120236      2.99901325     -1.07658438e+01   -2.30049729e+00    2.94966848e+00       -0.00000423     -0.00001782      0.00000914  
H     -1.38638516     -6.02029801      2.90983227     -1.48830110e+01   -9.10210512e+00    3.35921124e+00       -0.00000412     -0.00001823      0.00000903  
H     -1.46748619     -6.03784274      2.84920067     -5.35430153e+00   -5.21211730e+00   -1.08027286e+00       -0.00000433     -0.00001840      0.00000909  
H     -1.39261655     -5.94106270      2.85260554     -9.92467150e+00   -1.45422906e+00    9.58825935e+00       -0.00000424     -0.00001900      0.00000942  
H     -1.44251332     -5.92631801      2.88467365      6.36862323e+00   -7.01364387e+00    1.03995559e+01       -0.00000461     -0.00002003      0.00000979  
H     -1.49157172     -5.87939427      2.84990445      1.30999436e+00   -1.72308904e+00    8.75814856e+00       -0.00000548     -0.00002188      0.00001067  
H     -1.40768634     -5.91334308      2.90499711     -7.46564352e+00   -1.10026849e+01    1.09791756e+01       -0.00000484     -0.00002097      0.00001034  
H     -1.35779001     -5.93423880      3.04323857     -5.14719293e+00   -2.45447494e+00   -6.95815829e+00       -0.00000427     -0.00001967      0.00001008  
H     -1.42738906     -5.83109065      3.12886032      6.78038154e+00    1.84503810e+00   -3.89911288e-01       -0.00000430     -0.00001902      0.00001005  
H     -1.38478049     -5.64591410      3.25764957      2.69249488e+00   -6.12922033e-02    2.06315873e+00       -0.00000458     -0.00002067      0.00001142  
H     -1.41221833     -5.69606376      3.20701826     -9.98865689e-02    5.86688276e+00   -3.08424497e+00       -0.00000498     -0.00002136      0.00001158  
H     -1.42262150     -5.68166033      3.15815628      6.65388151e+00    1.43387782e+01    6.12604864e+00       -0.00000515     -0.00002218      0.00001193  
H     -1.39617954     -5.68983731      3.10490817      1.40968746e+01   -6.03124771e+00    5.71463775e-01       -0.00000519     -0.00002288      0.00001217  
H     -1.48215793     -5.66788812      3.13423771      6.43823710e+00    4.78675991e+00   -4.84505463e+00       -0.00000561     -0.00002295      0.00001237  
H     -1.45623591     -5.72817887      3.10551809      1.70813929e+00   -7.94271517e+00    5.26088068e+00       -0.00000542     -0.00002171      0.00001150  
H     -1.53317980     -5.60026272      3.09134151     -5.17263144e+00    9.20991136e+00    3.64128686e+00       -0.00000595     -0.00002255      0.00001196  
H     -1.51589166     -5.69871274      3.09817924      7.35708590e+00    4.49943874e+00   -6.73241200e+00       -0.00000581     -0.00002160      0.00001135  
H     -1.54750953     -5.83755391      3.11370628     -6.52408820e+00    5.74698160e+00    3.54212294e+00       -0.00000517     -0.00001894      0.00001010  
H     -1.49914516     -5.78253863      3.11377231     -1.03159315e+01   -1.03667093e+01   -1.29642238e-01       -0.00000480     -0.00001865      0.00000988  
H     -1.49795491     -5.75432387      3.08328653     -7.97967230e+00   -4.77431948e+00   -7.36248595e+00       -0.00000519     -0.00001976      0.00001048  
H     -1.41081766     -5.77663579      3.12837977      9.31065839e+00    7.36835832e+00    1.84714211e-01       -0.00000484     -0.00001993      0.00001084  
H     -1.42830757     -5.89425514      3.13661161      2.40309617e+01    6.95344968e-01   -2.52777018e+00       -0.00000482     -0.00001956      0.00001060  
H     -1.43589239     -5.87248578      3.24378272      3.78967687e+00   -3.37670169e+00   -1.65274645e+01       -0.00000459     -0.00002004      0.00001119  
H     -1.34964101     -5.89793620      3.24592529      8.80717281e+00    8.62750910e+00    3.81752645e+00       -0.00000434     -0.00001908      0.00001078  
