96
100000  xi=   0.12772580  Mean pot=  -107.54644416  Cent pot=  -109.36313476 kcal/mol
H     -0.24962835      4.50852347     -0.06899459      2.49066188e-01    1.69259849e+00    4.90764886e-01      -35.61399276      4.63007561     -0.77828441  
H     -0.25122502      4.40432260     -0.01735148     -5.72167710e+00   -2.60355132e+00   -3.11528595e+00        8.19567798     -2.25158107      0.77461275  
H     -0.12936913      4.37642044     -0.03498403     -6.73220222e+00    4.36532858e+00    1.03806926e+01       66.57003483    -22.79929690     -1.46454201  
H     -0.20092763      4.34755483     -0.11167057      4.32309506e+00    9.21556609e+00   -7.82811985e+00       67.29850414    -29.41256025    -17.50841345  
H     -0.16916241      4.32030660     -0.04793505     -6.18865331e+00    9.67757832e-02    8.50085319e+00       58.17846479    -28.11391635     -6.39756185  
H     -0.28054451      4.53197552     -0.10657441      5.33877015e+00   -4.84890486e+00   -7.40717236e-01      -37.69465139     13.04758992      8.25825480  
H     -0.21109988      4.64106420     -0.16015890      1.14077147e+01    4.81902406e-01    8.15560783e+00       39.74984968    -10.95282815     -4.46062989  
H     -0.20122890      4.57848028     -0.19795405      5.58442510e+00   -6.82585098e+00   -1.64483428e+01       75.61971109    -23.07913895    -19.35734012  
H     -0.22271901      4.60789094     -0.18941385     -5.13184705e+00   -2.83661679e+00   -1.38452632e+01       62.58302644     -5.42292026    -18.81464113  
H     -0.42025789      4.71788604     -0.11550347     -2.48712612e+00    4.20199289e-01   -8.51210358e+00       -2.68165814     -0.18144836      0.65321896  
H     -0.39682290      4.61530280     -0.13135290     -7.05249189e+00   -1.82763633e+00    7.70458250e+00       30.84170258     -2.86800447     -5.40996971  
H     -0.45419637      4.70982097     -0.14333405      2.80026956e-02    8.98441922e+00    1.38805728e+01       27.11157291      0.34577183     -5.70423748  
H     -0.54489777      4.66672241     -0.00732029      8.94077609e+00   -3.51170318e+00   -1.16729566e+01       -7.67997408     -0.16068634      0.20665086  
H     -0.54525323      4.70966769     -0.08419604     -3.57450550e+00    7.81391541e+00   -7.15425613e+00       59.17405871     10.05902647     -2.94996418  
H     -0.62770856      4.67379326     -0.06434940     -7.53451849e+00    1.59347319e+01    5.32949923e+00      -25.11670205     -2.83085094      3.39458480  
H     -0.48655026      4.58559524      0.01486589      7.96710783e+00   -1.21281840e+00    7.70528687e+00       56.66882640     -2.31673514     -1.96784029  
H     -0.48697726      4.65834998      0.01423463     -4.18672919e+00   -9.13806489e+00    1.34111503e+00        5.01582159     -0.33116042      0.19228551  
H     -0.56757129      4.57388627      0.02484696     -8.22005383e+00    1.30874615e+00    4.02535109e+00      -51.73567242     12.77210888      1.31192763  
H     -0.47032640      4.57076443      0.04285222     -7.69836845e+00   -1.33394032e+01    5.86165742e-01       22.50411945     -0.44305644     -2.09522005  
H     -0.47761806      4.56508721      0.08707094     -1.32965863e+01   -8.61939813e+00    2.44683756e+00       48.42764711      2.37162620      0.64737394  
H     -0.53717540      4.55583568      0.06196564     -1.07325429e+01   -5.33836130e-02   -4.16825697e+00      -23.24233054     -1.30296534      2.34628797  
H     -0.50848608      4.48223361      0.08661936      1.17546809e+01    9.78932710e+00    3.39689753e+00      -33.92906784      1.67104591      0.79448094  
H     -0.37129964      4.44622095      0.08898451      3.51049595e+00    5.55327872e+00   -9.86669446e+00       42.54304542     -9.68579285     -0.24367699  
H     -0.34162281      4.46344243      0.06385231      5.78346724e+00    1.53728787e+00   -6.63417377e+00       38.49106359    -11.42018586     -6.47805410  
H     -0.35506671      4.41369664      0.04510967      1.71458778e-01    5.51524078e+00    4.29806906e+00      -60.34502363     31.00233952     17.01972690  
H     -0.27444003      4.38494403     -0.07511440      1.12196987e+01   -6.49132723e+00    3.68862732e+00       19.56624135    -11.25696716     -4.05347337  
H     -0.33957178      4.45286523     -0.18338540      5.60501783e+00   -1.16457638e+01    3.21122662e+00       48.15715285    -37.99957716    -28.44921447  
H     -0.27486622      4.44726107     -0.05951192     -1.47774473e+01    7.93315499e-01   -3.01178550e+00       40.50361184    -20.19200309     -8.72545179  
H     -0.33756539      4.35368390     -0.18034780      9.88255758e-01    7.96820129e+00    9.38413800e+00       45.41407993    -32.75256454    -23.13519825  
H     -0.24175665      4.34049628     -0.13905780      1.67971016e+00    3.70321258e+00   -3.96161267e+00       57.14006548    -25.73563602    -24.12034330  
H     -0.31694359      4.39607467     -0.07847334      2.32190838e+00   -6.32573623e+00   -1.23715439e+00       34.11709099    -10.80363912    -10.62228914  
H     -0.33009411      4.38464430     -0.11676238     -4.76839930e+00    2.13947604e+00   -9.71691280e+00      -15.32689741      4.98905493      2.70376102  
H     -0.94701094      4.59918821     -0.08423472      5.89792968e+00   -1.10400297e+00   -1.07588017e+01       35.61399236     -4.63007298      0.77828435  
H     -0.97364040      4.60279036     -0.08563041     -1.45633624e+01   -2.20279791e+00    8.89178297e+00       -8.19567840      2.25158373     -0.77461279  
H     -0.94866837      4.65701888     -0.01695943     -7.54918692e+00   -7.18319303e+00   -1.78103525e+01      -66.57003522     22.79929955      1.46454199  
H     -0.98642331      4.69085280      0.09268439     -2.23174754e+00   -5.20337789e+00   -5.71381655e+00      -67.29850451     29.41256291     17.50841345  
H     -0.93236251      4.68911223      0.03598982      4.26441120e+00    7.38196882e+00    9.03743532e+00      -58.17846517     28.11391904      6.39756184  
H     -0.92732591      4.75585178      0.03512435     -6.66447850e+00    1.60774013e+01    1.47131478e+01       37.69465101    -13.04758739     -8.25825480  
H     -0.98001076      4.85293292     -0.07387362     -4.58863029e+00   -6.44685572e+00   -4.72720495e+00      -39.74985006     10.95283065      4.46062989  
H     -1.03819449      4.83392222      0.01629469     -1.35165079e+00   -3.45120586e+00    8.57499226e+00      -75.61971145     23.07914126     19.35734011  
H     -1.03719714      4.67846680      0.05544669     -8.22369498e+00    1.18475789e+00    4.16521014e+00      -62.58302680      5.42292266     18.81464113  
H     -1.13606212      4.66945245      0.05885765      2.23547417e+00   -1.65343642e+00    1.54131769e+00        2.68165777      0.18145067     -0.65321894  
H     -1.16700264      4.68692271      0.00374499      8.50057776e+00    1.23988788e+00   -2.34393242e+00      -30.84170295      2.86800683      5.40996974  
H     -1.21677326      4.70009536      0.01711108     -3.09397408e+00   -1.36587005e+00    2.25551155e+00      -27.11157331     -0.34576945      5.70423751  
H     -1.27709416      4.65140271      0.01238147     -4.00412608e+00   -1.18704433e+00   -1.11641669e+01        7.67997368      0.16068878     -0.20665082  
H     -1.37247628      4.56904767     -0.04295705     -7.86257776e+00   -1.34959161e+01   -1.23487709e+01      -59.17405914    -10.05902395      2.94996421  
H     -1.33047185      4.59458624      0.03063081     -1.18021332e+01    1.30032155e+01   -3.26122057e+00       25.11670162      2.83085341     -3.39458477  
H     -1.31789590      4.61958233      0.04373460     -2.67818793e+00    3.25174023e+00    1.32400925e+01      -56.66882683      2.31673763      1.96784030  
H     -1.23262778      4.70758039     -0.01435048     -2.73457775e+00   -7.65518295e+00   -3.63424276e+00       -5.01582201      0.33116296     -0.19228551  
H     -1.23516447      4.73869657      0.04177598     -1.64502134e-01    9.66679664e-01    3.45081748e-01       51.73567193    -12.77210607     -1.31192766  
H     -1.23851314      4.58588839      0.11437336      1.75419857e+00   -1.33542260e+00    7.56079674e-01      -22.50411993      0.44305930      2.09522004  
H     -1.29195368      4.52520713      0.07618502     -1.57949222e+00    3.69177069e+00   -1.84701098e+00      -48.42764761     -2.37162328     -0.64737394  
H     -1.24814755      4.51597852      0.13373750      9.43289147e+00   -5.02798556e+00   -1.50254114e+00       23.24233004      1.30296825     -2.34628795  
H     -1.21269811      4.51691684      0.10310914     -1.20206832e+01   -3.39186411e+00    6.38142916e+00       33.92906734     -1.67104288     -0.79448093  
H     -1.15732382      4.62517543      0.09348668      5.30298688e+00    1.12420720e+00   -5.65674766e+00      -42.54304588      9.68579576      0.24367700  
H     -1.09952836      4.68831082      0.19140798      2.07012881e-01    1.95185581e+01    7.48492688e+00      -38.49106405     11.42018895      6.47805413  
H     -0.93679726      4.71256150      0.20918111      2.14798072e-01    3.24538332e+00   -9.29365627e+00       60.34502320    -31.00233655    -17.01972687  
H     -0.93318266      4.76393584      0.06135513      2.69271894e+00    2.38843617e+00   -2.82623657e+00      -19.56624173     11.25696994      4.05347336  
H     -0.95112738      4.93542813      0.17789585     -1.07255127e+00    1.40752401e+00   -1.55936051e+01      -48.15715323     37.99957985     28.44921446  
H     -0.98733335      4.80244272      0.09397062      1.57349375e+01   -1.78618777e+01    1.03488811e+01      -40.50361224     20.19200591      8.72545180  
H     -0.96816501      4.80847140      0.14089722     -1.80124391e+00    1.69686775e+01    8.09512722e+00      -45.41408035     32.75256737     23.13519823  
H     -0.97141429      4.66913091      0.16895012      3.78065701e+00    1.60894062e+01   -5.04586126e-01      -57.14006589     25.73563879     24.12034329  
H     -1.04348503      4.62614389      0.14773391      1.29485628e+01    4.65391275e+00   -1.30578627e+00      -34.11709141     10.80364188     10.62228912  
H     -1.00817745      4.60536699      0.00285579      1.34129945e+01   -7.14049769e-01    8.05093629e+00       15.32689698     -4.98905220     -2.70376107  
H      1.53674029     -9.26145783      0.24413945      1.77918522e+01    5.82782548e+00   -4.49661676e-01        0.00000040     -0.00000263      0.00000006  
H      1.58241266     -9.27724864      0.18752322     -2.85711196e+00   -1.09887669e+01   -3.46117874e+00        0.00000042     -0.00000267      0.00000005  
H      1.57284909     -9.30461520      0.10163022      5.31471131e+00    1.95234428e+01    3.86462482e+00        0.00000039     -0.00000264      0.00000002  
H      1.38641515     -9.31520455     -0.02108374      3.57374164e+00    8.99057267e+00    2.09521807e+00        0.00000037     -0.00000266      0.00000000  
H      1.46151520     -9.30393421      0.01292307      4.65190633e+00   -9.70878053e+00    9.32650654e+00        0.00000038     -0.00000269      0.00000000  
H      1.53629115     -9.26237754     -0.03951496      1.03860660e+00   -1.02055583e+01    5.57451539e+00        0.00000038     -0.00000252      0.00000000  
H      1.59408249     -9.16910743     -0.09230004     -2.45826172e+00    5.83201954e+00    7.59187869e+00        0.00000039     -0.00000250      0.00000001  
H      1.59925541     -9.36406108     -0.02993797      2.58649559e+00   -2.13375833e+00   -1.36579502e-01        0.00000036     -0.00000231      0.00000001  
H      1.54433235     -9.35233196     -0.08705341     -1.03131602e+01   -1.95123785e+00    2.28156626e+00        0.00000037     -0.00000240     -0.00000000  
H      1.48575419     -9.36135042     -0.17624233     -1.44285413e+01   -8.75949884e+00    2.69179374e+00        0.00000037     -0.00000231     -0.00000002  
H      1.40464754     -9.37896722     -0.23687576     -4.89935478e+00   -4.86329368e+00   -1.74753438e+00        0.00000036     -0.00000236     -0.00000003  
H      1.47954715     -9.28214459     -0.23345986     -9.47229993e+00   -1.10908790e+00    8.92005529e+00        0.00000039     -0.00000238     -0.00000003  
H      1.42960612     -9.26739869     -0.20140822      6.82479752e+00   -6.66860086e+00    9.73276746e+00        0.00000041     -0.00000244     -0.00000004  
H      1.38059133     -9.22051949     -0.23616104      1.76241524e+00   -1.37421475e+00    8.08995625e+00        0.00000043     -0.00000252     -0.00000003  
H      1.46444847     -9.25439526     -0.18107916     -7.01079348e+00   -1.06600896e+01    1.03119031e+01        0.00000043     -0.00000246     -0.00000003  
H      1.51434818     -9.27536767     -0.04283621     -4.69262742e+00   -2.10527491e+00   -7.62555385e+00        0.00000043     -0.00000248     -0.00000001  
H      1.44477178     -9.17216477      0.04279373      7.23299505e+00    2.18954142e+00   -1.05802076e+00        0.00000042     -0.00000254      0.00000001  
H      1.48733936     -8.98700230      0.17156774      3.14863885e+00    2.84412946e-01    1.39636579e+00        0.00000049     -0.00000281      0.00000003  
H      1.45994708     -9.03718310      0.12095349      3.52334124e-01    6.21528247e+00   -3.75251012e+00        0.00000048     -0.00000286      0.00000001  
H      1.44950916     -9.02271370      0.07207836      7.10909393e+00    1.46814945e+01    5.45891424e+00        0.00000050     -0.00000292     -0.00000000  
H      1.47596336     -9.03096920      0.01883510      1.45510417e+01   -5.68176974e+00   -9.60776989e-02        0.00000051     -0.00000291     -0.00000002  
H      1.38999935     -9.00895543      0.04816979      6.89114865e+00    5.13067844e+00   -5.51304667e+00        0.00000050     -0.00000304     -0.00000001  
H      1.41588518     -9.06927510      0.01943680      2.16418117e+00   -7.59631985e+00    4.59404940e+00        0.00000046     -0.00000292     -0.00000002  
H      1.33898711     -8.94137540      0.00527732     -4.72054410e+00    9.55775439e+00    2.97297125e+00        0.00000046     -0.00000309     -0.00000003  
H      1.35623532     -9.03976904      0.01209998      7.81261993e+00    4.84239834e+00   -7.39942130e+00        0.00000043     -0.00000298     -0.00000002  
H      1.32463809     -9.17868747      0.02763499     -6.07033019e+00    6.09662359e+00    2.87442372e+00        0.00000038     -0.00000279      0.00000001  
H      1.37300808     -9.12360013      0.02770286     -9.86266730e+00   -1.00232974e+01   -7.97501409e-01        0.00000038     -0.00000269      0.00000001  
H      1.37416834     -9.09542801     -0.00279393     -7.52381114e+00   -4.42723085e+00   -8.02939250e+00        0.00000040     -0.00000281     -0.00000000  
H      1.46134982     -9.11774114      0.04231579      9.76269227e+00    7.71556085e+00   -4.83620809e-01        0.00000043     -0.00000283      0.00000002  
H      1.44381633     -9.23531585      0.05053124      2.44867700e+01    1.03868411e+00   -3.19468379e+00        0.00000040     -0.00000277      0.00000001  
H      1.43625975     -9.21361949      0.15771311      4.24304129e+00   -3.02704375e+00   -1.71953144e+01        0.00000042     -0.00000277      0.00000003  
H      1.52250775     -9.23899316      0.15985413      9.26082901e+00    8.97051905e+00    3.14981406e+00        0.00000043     -0.00000273      0.00000004  
