3
100000  xi=   0.32776069  Mean pot=  -107.00974400  Cent pot=  -109.49212395 kcal/mol
H      1.26680084      3.01494156     -1.38752914       0.24184896
H      0.83690403      3.53230904     -1.06652407       0.17531133
H     -2.10370487     -6.54725060      2.45405321       0.19078893
3
200000  xi=   0.33860398  Mean pot=  -108.02389958  Cent pot=  -108.48389196 kcal/mol
H      0.34563034     -3.27362254      1.35824716       0.18144224
H      1.01637680     -3.28654119      1.17799605       0.17985361
H     -1.36200714      6.56016373     -2.53624322       0.19463469
3
300000  xi=   0.33470940  Mean pot=  -106.98463200  Cent pot=  -109.49141017 kcal/mol
H      3.16724470     -1.26678281     -1.02054388       0.14873459
H      3.36691702     -1.49168843     -0.33833129       0.16357628
H     -6.53416172      2.75847124      1.35887517       0.12843987
3
400000  xi=   0.33111084  Mean pot=  -107.22148872  Cent pot=  -109.49311151 kcal/mol
H     -2.92071708     -2.12642317      1.37797021       0.15822462
H     -2.88171737     -1.73334212      0.75424812       0.21269108
H      5.80243446      3.85976529     -2.13221833       0.17086031
3
500000  xi=   0.32685632  Mean pot=  -106.52030312  Cent pot=  -109.35705156 kcal/mol
H      2.25439485     -2.66790739     -0.40250274       0.21223691
H      2.22146333     -3.11316071      0.16688284       0.24981886
H     -4.47585818      5.78106810      0.23561990       0.18209166
3
600000  xi=   0.32840482  Mean pot=  -106.94791696  Cent pot=  -109.43660167 kcal/mol
H     -0.24085543      1.78078048     -3.15420098       0.22908341
H      0.49476684      1.65221344     -3.25791138       0.15946066
H     -0.25391141     -3.43299392      6.41211235       0.20890754
3
700000  xi=   0.32100869  Mean pot=  -106.79585331  Cent pot=  -109.43297271 kcal/mol
H     -3.88786741     -0.05958533      0.85024352       0.17266148
H     -3.29845587      0.36821451      0.88821419       0.17590194
H      7.18632328     -0.30862918     -1.73845771       0.17798934
3
800000  xi=   0.33156889  Mean pot=  -107.63634670  Cent pot=  -109.45496979 kcal/mol
H      0.23617351      2.08804683     -3.32209450       0.15169901
H      0.42164914      1.44425148     -3.02828278       0.16018410
H     -0.65782265     -3.53229831      6.35037727       0.20789578
3
900000  xi=   0.33112354  Mean pot=  -106.57670329  Cent pot=  -109.26043723 kcal/mol
H     -2.83146686     -1.59619697     -0.66892041       0.13142234
H     -3.59588929     -1.64662168     -0.68212072       0.12988314
H      6.42735615      3.24281865      1.35104112       0.16460855
3
1000000  xi=   0.32040930  Mean pot=  -106.96122110  Cent pot=  -109.46624760 kcal/mol
H     -1.79392007     -3.12396841     -0.27057846       0.17537981
H     -1.24438435     -3.57694280     -0.09710707       0.20567029
H      3.03830442      6.70091121      0.36768553       0.17627274
3
1100000  xi=   0.33887743  Mean pot=  -106.50537245  Cent pot=  -109.48711889 kcal/mol
H     -1.53519133      2.63578343      2.19600093       0.21142315
H     -0.89236132      2.33960574      2.39996709       0.24891190
H      2.42755265     -4.97538917     -4.59596802       0.20577442
3
1200000  xi=   0.33203967  Mean pot=  -106.40781743  Cent pot=  -109.46180865 kcal/mol
H      2.42922882     -2.36944199      0.76973465       0.23312110
H      3.10766422     -2.09994123      0.71050277       0.20459475
H     -5.53689305      4.46938322     -1.48023743       0.15540804
3
1300000  xi=   0.33034783  Mean pot=  -107.22337981  Cent pot=  -109.48853005 kcal/mol
H      1.76989873     -3.06369127     -1.62556855       0.20734459
H      2.01149552     -2.48588388     -1.23719873       0.15155634
H     -3.78139424      5.54957515      2.86276728       0.18983744
3
1400000  xi=   0.32559117  Mean pot=  -100.91655488  Cent pot=  -109.23236274 kcal/mol
H      3.12310195     -0.06871177      1.54148112       0.18473165
H      3.21203827     -0.49230213      2.11308985       0.20970445
H     -6.33514022      0.56101390     -3.65457097       0.19832843
3
1500000  xi=   0.33213931  Mean pot=  -106.78995535  Cent pot=  -109.23259252 kcal/mol
H      0.81896314      3.26960150     -1.12965287       0.17087022
H      0.27230043      3.62021900     -0.82581569       0.23195939
H     -1.09126357     -6.88982051      1.95546856       0.18831674
3
1600000  xi=   0.32370998  Mean pot=  -108.37604316  Cent pot=  -109.03630042 kcal/mol
H     -0.64806095      3.60782764      1.38255211       0.21729076
H     -0.65154129      3.31955958      0.73435702       0.19140328
H      1.29960225     -6.92738722     -2.11690913       0.19494905
3
1700000  xi=   0.32634347  Mean pot=  -107.91475811  Cent pot=  -109.22178708 kcal/mol
H     -0.33175407      1.67993407      3.29575917       0.17965658
H     -0.89857308      1.91982565      2.92892771       0.15367153
H      1.23032715     -3.59975971     -6.22468687       0.22067180
3
1800000  xi=   0.33835558  Mean pot=  -107.74547295  Cent pot=  -109.49488384 kcal/mol
H      0.14321498     -2.78242456     -1.78953063       0.12924182
H      0.16275211     -3.52555148     -1.75306100       0.15135500
H     -0.30596710      6.30797603      3.54259163       0.19650771
3
1900000  xi=   0.33108811  Mean pot=  -107.20105267  Cent pot=  -109.35149419 kcal/mol
H      1.71573473      3.37800145     -0.37266488       0.18729582
H      1.40550979      3.18970055      0.25290450       0.16156170
H     -3.12124452     -6.56770200      0.11976038       0.20570697
3
2000000  xi=   0.33602265  Mean pot=  -107.60198579  Cent pot=  -109.20221125 kcal/mol
H      1.50110337     -1.10362939      2.94018917       0.21325895
H      1.98569028     -1.60266861      2.77192182       0.15534796
H     -3.48679365      2.70629800     -5.71211099       0.17431552
