3
100000  xi=   0.37978898  Mean pot=  -106.68710608  Cent pot=  -109.49504998 kcal/mol
H      1.04304477      2.98078245     -1.39446950       0.21162742
H      0.36887300      2.87072696     -1.68980452       0.22793793
H     -1.41191776     -5.85150940      3.08427402       0.19078818
3
200000  xi=   0.36900363  Mean pot=  -106.05546918  Cent pot=  -109.31584656 kcal/mol
H     -2.12374109      1.82826516     -1.92100791       0.14724775
H     -1.55706408      2.21751693     -2.25211790       0.15303813
H      3.68080518     -4.04578208      4.17312581       0.21691424
3
300000  xi=   0.38071860  Mean pot=  -104.51646302  Cent pot=  -108.55606912 kcal/mol
H      2.16418622     -2.35932059      0.86447384       0.24697448
H      2.75755826     -1.87814796      1.07301190       0.17802856
H     -4.92174449      4.23746856     -1.93748574       0.17760028
3
400000  xi=   0.38471940  Mean pot=  -107.03403904  Cent pot=  -109.46170473 kcal/mol
H      0.26642224     -2.39197539      2.05988939       0.16345660
H      0.92219734     -2.56489058      2.38260074       0.20663648
H     -1.18861958      4.95686597     -4.44249013       0.22435496
3
500000  xi=   0.37320242  Mean pot=  -105.90097224  Cent pot=  -109.46880268 kcal/mol
H     -1.25270984     -1.67765975     -2.60782769       0.16554232
H     -0.72140291     -1.51718698     -3.11236966       0.19248057
H      1.97411275      3.19484673      5.72019735       0.23498760
3
600000  xi=   0.38114981  Mean pot=  -106.95285710  Cent pot=  -109.31666240 kcal/mol
H      3.33009499     -1.05910838      0.79170540       0.12625205
H      2.82780148     -0.85021204      1.32674025       0.19508096
H     -6.15789646      1.90932042     -2.11844566       0.17866743
3
700000  xi=   0.37032426  Mean pot=  -107.55436316  Cent pot=  -108.19454816 kcal/mol
H      1.90184566      2.80698289     -0.31681101       0.23098725
H      1.57158421      2.95908506     -0.90175145       0.20549119
H     -3.47342987     -5.76606795      1.21856246       0.24660691
3
800000  xi=   0.38329118  Mean pot=  -105.54194503  Cent pot=  -109.47762501 kcal/mol
H      2.43111209      1.46536160      2.08056874       0.16209025
H      1.86101010      1.89108027      1.89744187       0.18400387
H     -4.29212219     -3.35644187     -3.97801061       0.25157454
3
900000  xi=   0.38857496  Mean pot=  -107.10757218  Cent pot=  -109.35023425 kcal/mol
H     -1.08480226     -0.28558996     -3.53838466       0.14002336
H     -0.89709991      0.00467082     -2.90321823       0.16947152
H      1.98190217      0.28091914      6.44160289       0.15087821
3
1000000  xi=   0.38151283  Mean pot=  -107.10770710  Cent pot=  -109.17027146 kcal/mol
H     -3.55935576     -0.39257225     -0.39029200       0.17212659
H     -3.19977024      0.27151880     -0.23684944       0.12706527
H      6.75912600      0.12105345      0.62714144       0.18340634
3
1100000  xi=   0.37752498  Mean pot=  -107.08906058  Cent pot=  -109.49024256 kcal/mol
H      1.62694620      2.89615250     -1.84570875       0.19312863
H      1.25252944      2.29887771     -1.60185486       0.16970464
H     -2.87947564     -5.19503021      3.44756361       0.15273593
3
1200000  xi=   0.38390928  Mean pot=  -105.63753443  Cent pot=  -109.01707298 kcal/mol
H      2.65859294     -0.91916782     -1.17933799       0.17330821
H      3.43350942     -0.94145177     -1.23156577       0.16889411
H     -6.09210236      1.86061960      2.41090376       0.21438756
3
1300000  xi=   0.37663448  Mean pot=  -103.93566370  Cent pot=  -109.49546506 kcal/mol
H      2.42113845     -2.09088609      2.04460502       0.19405362
H      1.91539070     -1.61674363      1.78785851       0.21889232
H     -4.33652915      3.70762972     -3.83246352       0.18639838
3
1400000  xi=   0.38417385  Mean pot=  -105.24755191  Cent pot=  -108.64857551 kcal/mol
H      0.05221334     -0.64721650      3.73476391       0.14792958
H     -0.14341215     -0.53731802      2.97809593       0.17873648
H      0.09119881      1.18453452     -6.71285984       0.19113871
3
1500000  xi=   0.38193888  Mean pot=  -106.30198340  Cent pot=  -107.90911328 kcal/mol
H      1.30624561     -0.72305736     -3.29804805       0.26557397
H      0.72592571     -0.45774267     -3.05286093       0.18177990
H     -2.03217132      1.18080003      6.35090898       0.25295182
3
1600000  xi=   0.38001523  Mean pot=  -105.54996092  Cent pot=  -107.78849336 kcal/mol
H      0.61586425      2.70252942      1.43345142       0.15397939
H      1.09806289      3.06358980      1.75225724       0.21341643
H     -1.71392714     -5.76611922     -3.18570866       0.26288764
3
1700000  xi=   0.37926116  Mean pot=  -105.61784842  Cent pot=  -108.10141013 kcal/mol
H      1.63493295      1.65253009     -2.14142929       0.19225008
H      1.84762920      1.50812514     -2.77850510       0.23498684
H     -3.48256216     -3.16065523      4.91993438       0.17448807
3
1800000  xi=   0.38154975  Mean pot=  -106.98909470  Cent pot=  -109.38251461 kcal/mol
H     -2.94139222     -1.28953827      1.24743235       0.12462740
H     -3.15134815     -0.94810588      0.60335380       0.20135259
H      6.09274037      2.23764415     -1.85078614       0.17278242
3
1900000  xi=   0.38016212  Mean pot=  -106.94372258  Cent pot=  -109.48773621 kcal/mol
H      1.17048533      2.21427256      1.98456443       0.24049786
H      1.60346154      2.02755982      2.55063597       0.14122766
H     -2.77394687     -4.24183238     -4.53520040       0.21282563
3
2000000  xi=   0.37981012  Mean pot=  -106.57737246  Cent pot=  -109.34205671 kcal/mol
H      1.85931356      3.02177974     -0.34222457       0.22024784
H      1.40152526      2.93710984      0.26030036       0.20400280
H     -3.26083883     -5.95888958      0.08192421       0.20095505
