96
100000  xi=   0.30899463  Mean pot=  -107.53090936  Cent pot=  -109.44683728 kcal/mol
H      1.33232267      3.27124397     -1.48288445     -7.23952128e+00    3.33830419e-01   -1.26583369e+01        3.35341115      6.91166009     43.79424280  
H      1.36541078      3.14679370     -1.50400088     -6.52349949e+00    8.99627098e-01    1.09493146e+01        2.59571486    -15.86475542    -48.09643763  
H      1.44966483      3.17905471     -1.46145943     -9.08969038e+00   -5.59903469e+00    1.79332160e-01        2.16923371     -7.44016520    -25.35001353  
H      1.46905261      3.16011064     -1.43920187      2.29839260e+00    1.08122906e+00   -6.94081074e+00       11.37109051    -14.02408461    -39.31145860  
H      1.49539637      3.13679887     -1.47241687      3.13717647e+00    7.23226078e+00    5.91317755e+00       14.76558630    -23.04608313    -66.59078954  
H      1.43230557      3.38961311     -1.47921547      8.05607219e+00    1.12588489e+01    8.34356861e+00        5.43394824     -1.76316176    -26.00102262  
H      1.43651866      3.44377515     -1.59368223      3.70220104e+00    2.52447030e+00    7.96697835e+00       11.51346111    -11.43423596    -63.20966918  
H      1.37428590      3.37852580     -1.55284972     -7.39362429e-02   -6.48773858e+00   -5.90882264e-01        4.76319647    -12.71720926    -51.10140358  
H      1.26603921      3.36009061     -1.46334595      1.78683359e-01    1.08881525e+01   -1.04993276e+01       10.06035062      9.01730941     54.97734742  
H      1.11323785      3.42697580     -1.45702056     -1.32629371e+00   -5.71292751e+00   -4.15359657e+00       -0.55349091     -0.32251520     -3.08544209  
H      1.14127643      3.36300100     -1.43542615     -2.26136996e+00   -9.46983985e+00   -1.49413872e+00       14.33937406     25.35924935    131.08415989  
H      1.11962050      3.42525764     -1.50934589     -5.64719818e+00   -4.69913307e+00   -5.53140266e+00       -0.10335019     -3.00976016    -22.49741493  
H      1.05860528      3.27764245     -1.42014647      7.62759229e-01   -7.06429070e+00   -6.99361957e+00        0.93259089    -11.19989617    -26.29942226  
H      0.87300325      3.20060455     -1.50544814      9.21011991e-01   -1.43868603e-01   -1.18001122e+01      -22.57383974    -37.96552163    -68.28962361  
H      0.87679916      3.22601206     -1.46688693     -1.25633989e+01    1.34171939e+01   -6.56192374e-01      -16.98748819    -30.21905554    -64.98496724  
H      0.99879378      3.17200287     -1.36845599     -5.01604229e-01    8.14153619e+00    1.16637368e+01       -4.76005098    -17.21893395    -28.46801243  
H      1.00757934      3.24706059     -1.34726204     -1.88266676e+00   -6.57356645e+00    3.48317988e+00        3.62301091      8.39633334     11.47682461  
H      1.05654123      3.17639798     -1.26945413     -6.32012605e+00   -3.95134795e+00    1.83451426e+00       -0.13900254     33.71196437     32.06321659  
H      1.10976902      3.15056260     -1.28486618     -6.64904482e+00   -8.31084709e+00    4.14058484e+00       -0.39186399     10.65840137     16.03499017  
H      1.02823346      3.07556287     -1.29973196     -7.48042563e+00    7.39719812e-01   -6.37240754e+00       -4.53598237    -24.93373050    -32.85648244  
H      1.04490395      3.10581389     -1.28231485      1.04968593e+01   -4.18280977e+00    5.55553130e+00       -0.40146498     -4.19172831     -6.58116851  
H      1.08068782      3.07276608     -1.30369876     -4.77438582e+00    5.87157867e+00    1.10323455e-01       -1.09643463    -13.95045702    -23.55725310  
H      1.24421401      3.13068352     -1.34994192     -3.01268243e+00    6.38944978e+00   -3.68946635e+00        7.37298611    -25.18830816    -53.87909526  
H      1.31469180      3.10262162     -1.29924929      5.18297554e+00    1.40986199e+01    3.14653397e-01       13.77325046    -42.99111059    -63.79207177  
H      1.35277177      3.11953457     -1.30580921      6.36760982e+00    8.10742908e+00   -2.47399085e+00        6.58649435    -33.85718880    -58.13169916  
H      1.31789546      3.15344828     -1.42530651      1.32615955e+01    4.27797581e+00    2.72334693e+00       -3.97361654    -21.74929837    -40.08510283  
H      1.32657614      3.28958658     -1.39547156      1.90816471e-01   -5.81212332e+00    4.94584429e+00        0.17091582     -1.99742784     -3.73310347  
H      1.28026672      3.12734156     -1.33318283      6.96412417e+00   -4.19743697e+00   -1.07490894e+01       -4.05495925    -23.96637188    -25.54693515  
H      1.36588866      3.09253013     -1.33843512     -5.91003874e+00    1.41496091e+01    9.45138034e+00       -0.39942577      1.67809805      1.64546560  
H      1.37842232      3.03447515     -1.29725161      3.90165633e+00    1.14209840e+01   -7.37112238e+00       -3.58770393     30.82960086     31.68173946  
H      1.33336401      3.03629456     -1.30919852      2.47223358e+00   -7.42487191e+00    3.54632996e+00        1.54125068     -6.69320503     -7.61241330  
H      1.30959443      3.12561628     -1.43668776      9.46739324e+00   -8.34760645e+00   -5.92688322e+00       -2.96577354     19.10459617     42.85993127  
H      1.38478275      3.37936855     -0.79777589      1.41493165e+01    8.74611376e-01    1.93367709e+00       -3.35340747     -6.91165012    -43.79424625  
H      1.32344858      3.40326286     -0.72647561     -1.29970198e+01   -5.08982282e+00   -5.62395359e+00       -2.59571106     15.86476587     48.09643408  
H      1.38604056      3.39727731     -0.71793540     -4.42873986e+00    3.40171545e+00   -8.06385849e+00       -2.16922990      7.44017547     25.35001017  
H      1.25732915      3.42123153     -0.70724400      5.56788065e-01    3.54789207e+00   -7.05527518e+00      -11.37108661     14.02409479     39.31145542  
H      1.31681021      3.41553572     -0.66701743     -4.29747901e+00    8.65030856e-01    1.11734988e+01      -14.76558236     23.04609345     66.59078627  
H      1.27356763      3.44111922     -0.71966648     -8.61889234e+00    5.89125209e-01    5.17231137e+00       -5.43394453      1.76317193     26.00101947  
H      1.28609531      3.59316351     -0.76784790      3.88141538e+00   -7.87310943e+00   -4.98945163e+00      -11.51345746     11.43424612     63.20966600  
H      1.30003481      3.57676818     -0.75625515      5.06956059e+00   -3.16867294e+00   -7.73784274e+00       -4.76319316     12.71721865     51.10140065  
H      1.38777536      3.46920531     -0.79808763     -1.27702219e+01   -1.19234075e+01    3.65706101e-01      -10.06034710     -9.01729958    -54.97735044  
H      1.24417560      3.50327322     -0.72710900      1.83840821e+00    5.09868446e+00   -3.26926385e+00        0.55349436      0.32252513      3.08543918  
H      1.20864028      3.48213427     -0.81961577      4.47246287e+00    9.50115177e+00    6.39842322e+00      -14.33937051    -25.35923939   -131.08416280  
H      1.12313473      3.52759734     -0.74437644      3.34573592e+00    1.29342441e+01    2.12167644e+01        0.10335380      3.00977060     22.49741188  
H      1.03314775      3.58337402     -0.70223274      4.93666067e+00    2.98619305e+00   -1.62993175e+01       -0.93258714     11.19990707     26.29941908  
H      1.12299616      3.62105194     -0.74917803     -1.15939372e+01   -4.92178560e+00   -8.15590336e+00       22.57384362     37.96553284     68.28962025  
H      1.07875594      3.58527315     -0.69430934     -6.00966769e+00    1.61401686e+01    2.27187512e+00       16.98749197     30.21906680     64.98496387  
H      1.11050067      3.57608960     -0.70038087      6.55367420e+00   -5.48400207e+00    8.82556927e+00        4.76005473     17.21894502     28.46800902  
H      1.18654119      3.66180490     -0.78035364     -4.27419356e+00   -9.60280265e+00   -6.22699000e+00       -3.62300716     -8.39632262    -11.47682805  
H      1.05446853      3.67907727     -0.79135920     -1.30170613e+00    6.84733377e+00    2.07975132e+00        0.13900672    -33.71195245    -32.06322063  
H      1.09511885      3.54903352     -0.68538774      1.46916285e+00   -5.74780980e+00   -3.25077602e+00        0.39186833    -10.65838925    -16.03499413  
H      1.11593239      3.55763290     -0.66448326     -6.63224498e+00   -5.04756000e+00    6.51907819e+00        4.53598688     24.93374310     32.85647834  
H      1.08351186      3.50892049     -0.64942379     -1.10332011e+01   -2.80398356e-01   -1.16820189e+01        0.40146954      4.19174117      6.58116444  
H      1.11185461      3.46931522     -0.63407172      5.27273642e+00    1.14313309e+00    9.21724782e+00        1.09643936     13.95046985     23.55724897  
H      1.14090815      3.48360719     -0.59502013      1.25888809e+01    9.08427094e-01   -1.22904016e+01       -7.37298160     25.18832025     53.87909145  
H      1.15788320      3.59207604     -0.57297576      1.57189875e+00    7.57330907e+00    8.41678802e-02      -13.77324564     42.99112300     63.79206787  
H      1.26910381      3.54962125     -0.56736444     -5.21811085e+00    1.27330167e+00   -2.97533126e+00       -6.58648978     33.85720051     58.13169551  
H      1.38821863      3.53835690     -0.71589986      1.41430342e+00   -7.76313711e+00   -2.31618723e+00        3.97362060     21.74930874     40.08509949  
H      1.29645269      3.64163285     -0.73751481      5.10588702e+00   -3.80845640e+00   -1.77791632e+01       -0.17091191      1.99743811      3.73310020  
H      1.37127906      3.66525938     -0.75978994     -5.24389330e+00   -1.22509720e+01    1.76296041e+01        4.05496346     23.96638276     25.54693165  
H      1.24210620      3.61256963     -0.82850590      5.86152225e+00    1.14033455e+01    7.57639148e+00        0.39942994     -1.67808698     -1.64546923  
H      1.32214806      3.51804676     -0.80031382      2.32180278e+00    8.99199707e+00    2.45060983e+00        3.58770802    -30.82959011    -31.68174294  
H      1.21994210      3.52885419     -0.74899407      1.35618952e+01    6.37036199e+00   -6.54398165e+00       -1.54124663      6.69321583      7.61240971  
H      1.26586367      3.40731602     -0.80471233     -5.87013573e-02    1.03911269e+01    3.80967733e+00        2.96577748    -19.10458542    -42.85993491  
H     -2.37701204     -6.80440156      2.37157970      1.70297106e+01    5.21167965e+00    6.16588546e-03       -0.00000368     -0.00000997      0.00000345  
H     -2.33132645     -6.82013350      2.31496899     -3.62039600e+00   -1.16099897e+01   -3.00582862e+00       -0.00000380     -0.00001044      0.00000355  
H     -2.34086235     -6.84756270      2.22915357      4.54903890e+00    1.89076270e+01    4.31327883e+00       -0.00000381     -0.00001028      0.00000336  
H     -2.52735551     -6.85810671      2.10630508      2.81318468e+00    8.37084428e+00    2.55548438e+00       -0.00000390     -0.00001018      0.00000318  
H     -2.45218461     -6.84684903      2.14045803      3.88523219e+00   -1.03274083e+01    9.77415927e+00       -0.00000393     -0.00001032      0.00000327  
H     -2.37746720     -6.80531652      2.08791151      2.76989653e-01   -1.08221063e+01    6.03153342e+00       -0.00000371     -0.00001017      0.00000315  
H     -2.31964931     -6.71199345      2.03516069     -3.22217318e+00    5.21091417e+00    8.04593689e+00       -0.00000365     -0.00001017      0.00000318  
H     -2.31446200     -6.90701094      2.09757426      1.82134235e+00   -2.74936589e+00    3.13035976e-01       -0.00000330     -0.00000939      0.00000294  
H     -2.36943556     -6.89522859      2.04033891     -1.10739541e+01   -2.57142799e+00    2.74152946e+00       -0.00000352     -0.00000983      0.00000302  
H     -2.42794412     -6.90427168      1.95129789     -1.51953418e+01   -9.37756687e+00    3.13899306e+00       -0.00000346     -0.00000994      0.00000291  
H     -2.50911598     -6.92190069      1.89053841     -5.66052590e+00   -5.48030768e+00   -1.28945646e+00       -0.00000355     -0.00000996      0.00000291  
H     -2.43417750     -6.82503309      1.89401601     -1.02368280e+01   -1.72997879e+00    9.37280564e+00       -0.00000360     -0.00001044      0.00000305  
H     -2.48411792     -6.81034974      1.92609108      6.06022325e+00   -7.28409821e+00    1.01834969e+01       -0.00000376     -0.00001089      0.00000318  
H     -2.53317258     -6.76341150      1.89123757      1.00127669e+00   -1.99480057e+00    8.54937197e+00       -0.00000388     -0.00001121      0.00000336  
H     -2.44924977     -6.79732295      1.94646344     -7.77759547e+00   -1.12776074e+01    1.07588953e+01       -0.00000378     -0.00001126      0.00000336  
H     -2.39941941     -6.81829514      2.08456763     -5.45344747e+00   -2.72280283e+00   -7.16658911e+00       -0.00000375     -0.00001107      0.00000341  
H     -2.46894617     -6.71505701      2.17028435      6.46789069e+00    1.56896222e+00   -6.06542979e-01       -0.00000376     -0.00001071      0.00000344  
H     -2.42639183     -6.52995345      2.29905284      2.38467884e+00   -3.31077809e-01    1.84831893e+00       -0.00000419     -0.00001193      0.00000404  
H     -2.45381177     -6.58007160      2.24836101     -4.09240270e-01    5.59438414e+00   -3.29386109e+00       -0.00000434     -0.00001212      0.00000396  
H     -2.46419047     -6.56564752      2.19962041      6.34240987e+00    1.40645027e+01    5.90595337e+00       -0.00000451     -0.00001259      0.00000410  
H     -2.43780710     -6.57389032      2.14623100      1.37904666e+01   -6.29985007e+00    3.63571181e-01       -0.00000456     -0.00001286      0.00000407  
H     -2.52371253     -6.55185234      2.17567418      6.12552446e+00    4.51049998e+00   -5.06275872e+00       -0.00000473     -0.00001283      0.00000412  
H     -2.49785325     -6.61222494      2.14690691      1.40084495e+00   -8.21191961e+00    5.04729320e+00       -0.00000450     -0.00001209      0.00000381  
H     -2.57476575     -6.48426143      2.13269593     -5.48263507e+00    8.93663368e+00    3.43066210e+00       -0.00000482     -0.00001241      0.00000390  
H     -2.55746703     -6.58270829      2.13963851      7.04616828e+00    4.22587798e+00   -6.95208122e+00       -0.00000457     -0.00001171      0.00000365  
H     -2.58913385     -6.72160204      2.15502560     -6.83077739e+00    5.47796780e+00    3.33452998e+00       -0.00000406     -0.00001037      0.00000334  
H     -2.54069864     -6.66650249      2.15521953     -1.06287401e+01   -1.06430038e+01   -3.48273253e-01       -0.00000391     -0.00001027      0.00000327  
H     -2.53957723     -6.63837532      2.12466104     -8.28653290e+00   -5.04305504e+00   -7.57483922e+00       -0.00000420     -0.00001088      0.00000350  
H     -2.45239635     -6.66062590      2.16974732      9.00002500e+00    7.09433260e+00   -2.70431568e-02       -0.00000417     -0.00001107      0.00000363  
H     -2.46989000     -6.77825970      2.17806345      2.37206585e+01    4.22561125e-01   -2.74679716e+00       -0.00000410     -0.00001075      0.00000348  
H     -2.47751225     -6.75652769      2.28510134      3.48260062e+00   -3.64625451e+00   -1.67349997e+01       -0.00000405     -0.00001080      0.00000359  
H     -2.39119491     -6.78190161      2.28738114      8.49440227e+00    8.35134045e+00    3.59815201e+00       -0.00000394     -0.00001075      0.00000365  
