96
100000  xi=   0.44722362  Mean pot=  -107.96407854  Cent pot=  -109.25726297 kcal/mol
H      0.37422944      2.27252507     -2.14132335      2.39526208e+00   -2.77935530e+00   -7.80056981e+00       -0.17104228     -0.81773278     -1.70105416  
H      0.35758858      2.20237679     -2.07900330     -1.19057097e+01   -1.59589469e-01    9.25529252e+00        4.32516308     21.59104724     35.50869703  
H      0.43867351      2.20695589     -2.00676501     -1.61839903e+01   -5.08336936e+00   -3.63086054e+00       12.38048886     82.29650988    108.86606537  
H      0.37733806      2.16156390     -2.00551130      1.26250673e+00    3.16405589e+00   -2.59595421e+00        2.42286098     16.33272587     18.28687744  
H      0.44110730      2.08631197     -1.97906355      5.13258173e+00    3.40063168e+00    9.07742717e+00       -0.74323052    -15.50749118    -12.62168331  
H      0.47097800      2.26617412     -2.08486890      6.91769701e+00    6.03093113e+00    2.03841006e+00        9.18655113    -34.30893895    -42.50767161  
H      0.51048160      2.46259887     -2.16087896     -4.35932324e+00   -5.92709699e-01    1.19020290e+00       -1.77862316      2.91244472      5.57223492  
H      0.48020225      2.40560382     -2.11828553      2.76912879e-02    5.71320574e+00   -1.60512983e-02       -5.37035776     10.29312975     16.98252567  
H      0.47643610      2.37386522     -2.12902087     -6.49481438e+00   -1.61642449e+00   -5.48668020e+00        2.41851852     -3.58188502     -7.98881287  
H      0.32025197      2.48615769     -2.11799756      6.17181539e+00   -7.32047806e+00   -5.43222765e+00        3.65027404     -3.42904675    -14.19197714  
H      0.32853736      2.35089046     -2.12542875      1.25361283e+00   -6.34099811e+00    5.51706310e+00        7.68426439    -13.21344328    -24.36436113  
H      0.23686015      2.33412668     -2.06262460     -5.88986370e+00   -4.80545409e+00   -1.76609198e+00        0.59459783     -2.24545153     -2.41250837  
H      0.17839124      2.22334937     -1.89796968      6.42053949e-01    2.46474066e+00   -1.33699142e+01       -1.36804977      5.17332781      2.78734700  
H      0.04355532      2.17759484     -1.97819516     -7.95909284e+00    2.32929903e+00   -1.54265298e+01       -0.23646895    -21.63782544    -11.66037223  
H      0.03105476      2.14875394     -2.06005237     -7.46254567e+00    3.80667189e+00    1.21259923e+00        0.79179183    -71.82408411    -61.52196580  
H      0.09148333      2.12839274     -1.93273594      1.38560356e+00    3.32268823e+00    9.38733706e+00       -1.82700142    -51.96872500    -34.00000385  
H      0.06330514      2.26039295     -1.98828893     -6.63352039e+00   -1.41039986e+01    3.13787327e+00       -9.39943635    -34.15641914    -29.12751973  
H      0.09305435      2.22077307     -1.92584717     -1.38466051e-01   -1.52325720e+00    1.00760145e+01       -0.80592763    -21.68878259    -15.73603356  
H      0.17865629      2.15711620     -1.89762838      7.02904917e+00   -8.52432255e+00   -7.29152685e-01        1.83764285    -20.49758264    -16.74190485  
H      0.08217583      2.17652635     -1.86510438     -1.32080157e+01   -1.10373484e+00   -2.78434191e+00       10.22556980     64.70531169     56.36580271  
H      0.14850646      2.21181184     -1.93702197      1.08270229e+00    6.66323296e+00    5.07185340e+00       -0.55539548      3.22217505      4.81932610  
H      0.20460621      2.22111021     -1.97760475     -2.39273082e+00    4.93844514e+00    4.33030956e+00        2.40448324     -6.41806894    -13.90631519  
H      0.26387432      2.28177714     -2.04583210      5.82220097e+00   -5.72912852e+00   -8.52927850e+00        3.43481566    -20.71524517    -63.22606332  
H      0.31195799      2.26545129     -1.93051915     -3.59900608e+00    1.46787682e+01    1.07096757e+01        0.90714841     -6.51812245    -11.25070298  
H      0.49298632      2.27321343     -1.85970433      4.76816996e-01    1.12241457e+01   -8.07145880e+00      -30.72236051     39.12021948     59.22235699  
H      0.58900591      2.30477243     -1.97297521      5.46696896e+00   -2.88375944e+00    9.88548384e+00      -41.81935914     33.34018321     52.69428715  
H      0.59519476      2.45415615     -1.98269581     -4.27145311e+00   -6.41331211e-01    1.81428701e+00       -9.80554462      4.98485374     10.41790118  
H      0.43398047      2.32453346     -1.98318208     -7.17225100e+00   -1.06374299e+01    1.60326640e+00      -16.37159264     49.83898067     74.85202121  
H      0.48819724      2.30768350     -2.05059569      3.88823252e+00    1.63976268e+01    7.21374079e+00       -5.37340304      6.07611603     11.94671825  
H      0.42891464      2.20942577     -2.05282071      5.06355312e+00    1.35380154e+01    1.18322204e+00        1.17475363     -6.97967142    -13.47058402  
H      0.30609352      2.19043314     -2.02565428      1.27038582e+01   -7.62425114e+00   -1.31946631e+01       -1.15966608    -11.68608485    -19.26310950  
H      0.32537579      2.17678520     -2.08119268      1.30039410e+01   -8.27991789e-01   -7.70156625e+00        1.03884080     17.64228557     26.21713933  
H      0.44137270      2.59353178     -1.47358080      3.91476946e+00    2.60175050e+00   -2.58156268e+00        0.17104573      0.81776193      1.70103238  
H      0.42984236      2.56306477     -1.48581416     -8.22102984e+00   -5.41153690e+00   -3.57905341e+00       -4.32515965    -21.59101633    -35.50871981  
H      0.49552255      2.58484704     -1.50687098      2.06632629e+00    1.49768082e+00   -3.91134529e+00      -12.38048499    -82.29647807   -108.86608798  
H      0.44759397      2.63516531     -1.47524444      9.88271920e-01    8.39231087e-02   -1.10519309e+01       -2.42285639    -16.33269289    -18.28690004  
H      0.46963126      2.68146274     -1.49466596     -6.89568947e+00    3.31089925e+00    8.35624690e+00        0.74323492     15.50752384     12.62166065  
H      0.33339798      2.77999344     -1.44826374     -8.08081908e+00    4.43172816e+00    1.18205725e+01       -9.18654735     34.30897155     42.50764929  
H      0.31070205      2.78972981     -1.53499046      1.13368828e+01   -6.13736914e+00    2.13811022e+00        1.77862669     -2.91241310     -5.57225699  
H      0.29260620      2.76516031     -1.52505582      4.36894200e+00   -1.67579469e+01   -7.97077983e+00        5.37036084    -10.29310037    -16.98254580  
H      0.27593570      2.67081289     -1.46673153     -6.70171006e+00   -7.99597724e-01   -4.29793991e+00       -2.41851504      3.58191597      7.98879167  
H      0.13568514      2.65953957     -1.40041653     -6.26178859e+00    5.31978165e+00   -1.64455931e+00       -3.65027095      3.42907836     14.19195645  
H      0.11988929      2.70967092     -1.46387215      3.56566403e-01    4.98776379e+00   -2.68957141e-01       -7.68426080     13.21347595     24.36433957  
H      0.10446130      2.83412476     -1.52543328      2.98264845e+00    1.16585505e+01    1.78019519e+01       -0.59459479      2.24548505      2.41248655  
H      0.01184801      2.85313454     -1.55864312      4.45849131e+00   -7.93096536e+00   -9.58138125e+00        1.36805300     -5.17329374     -2.78737009  
H      0.05100694      2.85944047     -1.61075751     -3.31930679e+00   -8.77546380e+00   -4.17977162e+00        0.23647218     21.63786036     11.66034786  
H      0.02301569      2.87798646     -1.43541790     -1.17119134e+01    2.43636116e+01    7.48226555e-01       -0.79178909     71.82412003     61.52194188  
H      0.11632878      2.83511665     -1.47036944      4.06488880e+00   -2.04894038e+00    1.14466513e+01        1.82700413     51.96875869     33.99998055  
H      0.22937665      2.86387698     -1.47365713     -1.28685043e-01   -3.45505155e+00   -5.53166450e+00        9.39943947     34.15645164     29.12749719  
H      0.11644182      2.85016596     -1.46919945     -8.08225752e+00    3.03142313e+00   -5.82013399e+00        0.80593058     21.68881672     15.73600871  
H      0.12479888      2.75785776     -1.40695862     -1.28147939e+01   -6.91472965e+00    1.96923182e+00       -1.83763939     20.49761869     16.74187916  
H      0.16049771      2.67213116     -1.43337516     -1.50538197e+00   -4.59170128e+00    3.27528744e+00      -10.22556623    -64.70527428    -56.36582911  
H      0.07843541      2.61833111     -1.32899557     -2.22132956e+00   -1.25094664e+01   -1.08527430e+01        0.55539903     -3.22213582     -4.81935408  
H      0.08649151      2.53638457     -1.29448913      2.28625219e+00    6.92847889e-01    5.34664828e+00       -2.40447899      6.41810776     13.90628673  
H      0.21973628      2.54797242     -1.23336477      3.15495309e+00    1.16396534e+01   -7.10881172e+00       -3.43481127     20.71528301     63.22603643  
H      0.25918748      2.64462521     -1.27604356      9.74774776e+00    5.61275092e+00   -9.96022379e+00       -0.90714303      6.51816235     11.25067434  
H      0.22739025      2.61140911     -1.34772455      7.25529849e-02   -3.23142981e+00    2.96565019e+00       30.72236594    -39.12018153    -59.22238384  
H      0.21564271      2.60243336     -1.50252058      8.60590702e+00   -1.98369860e+00   -9.13183504e+00       41.81936417    -33.34015002    -52.69431084  
H      0.12638227      2.69248583     -1.48460547      8.96394324e+00   -1.03634478e+01   -1.42989602e+01        9.80554913     -4.98482141    -10.41792406  
H      0.31605720      2.68351947     -1.44402894      8.29313949e+00   -7.19773791e+00    5.61933542e+00       16.37159746    -49.83894586    -74.85204580  
H      0.21836943      2.61279721     -1.45068552     -4.54300569e+00    7.77472992e+00    1.01648536e+01        5.37340733     -6.07608216    -11.94674283  
H      0.37015091      2.55856581     -1.37899205      5.60288965e-01    5.48670418e+00   -5.76087687e+00       -1.17474917      6.97970511     13.47055986  
H      0.34575527      2.59010888     -1.36683820      2.72654049e+00    5.18809726e+00    1.05443640e+01        1.15967014     11.68611800     19.26308540  
H      0.34862262      2.57157875     -1.49451290     -4.19877131e+00    1.48652748e+00    5.93221352e+00       -1.03883722    -17.64225368    -26.21716282  
H     -0.47552493     -5.01984007      3.70588649      1.76308701e+01    6.59722479e+00   -3.41796828e-01       -0.00000345     -0.00002915      0.00002178  
H     -0.42986031     -5.03552882      3.64927739     -3.01743061e+00   -1.02281686e+01   -3.35389601e+00       -0.00000343     -0.00003091      0.00002278  
H     -0.43939956     -5.06302227      3.56338592      5.15228957e+00    2.02950171e+01    3.97171975e+00       -0.00000387     -0.00003181      0.00002261  
H     -0.62586609     -5.07350230      3.44066220      3.41416178e+00    9.75272439e+00    2.20320673e+00       -0.00000458     -0.00003297      0.00002260  
H     -0.55073604     -5.06228627      3.47468350      4.48971591e+00   -8.94189557e+00    9.43317979e+00       -0.00000440     -0.00003266      0.00002266  
H     -0.47597732     -5.02074799      3.42223093      8.77925211e-01   -9.43711703e+00    5.68249983e+00       -0.00000377     -0.00003260      0.00002232  
H     -0.41818734     -4.92739263      3.36945544     -2.61884855e+00    6.59314328e+00    7.69899522e+00       -0.00000353     -0.00003162      0.00002207  
H     -0.41299505     -5.12246965      3.43181610      2.42424327e+00   -1.36202344e+00   -2.93204080e-02       -0.00000307     -0.00002937      0.00002013  
H     -0.46794911     -5.11062066      3.37469336     -1.04727379e+01   -1.18980864e+00    2.38945254e+00       -0.00000348     -0.00003095      0.00002120  
H     -0.52649511     -5.11971493      3.28551780     -1.45908952e+01   -7.99154349e+00    2.79849661e+00       -0.00000309     -0.00003161      0.00002069  
H     -0.60762415     -5.13732522      3.22486920     -5.05976519e+00   -4.09589861e+00   -1.63947658e+00       -0.00000359     -0.00003267      0.00002156  
H     -0.53271934     -5.04043716      3.22829673     -9.63317950e+00   -3.47306095e-01    9.02703837e+00       -0.00000304     -0.00003352      0.00002182  
H     -0.58264647     -5.02580610      3.26034400      6.66275047e+00   -5.89692834e+00    9.84018651e+00       -0.00000324     -0.00003408      0.00002309  
H     -0.63168944     -4.97880115      3.22558673      1.60278160e+00   -6.13356356e-01    8.19770169e+00       -0.00000323     -0.00003492      0.00002437  
H     -0.54779928     -5.01277124      3.28068042     -7.17325449e+00   -9.89112386e+00    1.04186738e+01       -0.00000274     -0.00003592      0.00002392  
H     -0.49792627     -5.03371271      3.41890832     -4.85280355e+00   -1.33896004e+00   -7.51749946e+00       -0.00000271     -0.00003369      0.00002331  
H     -0.56749126     -4.93046726      3.50455174      7.07183993e+00    2.95214469e+00   -9.51126424e-01       -0.00000312     -0.00003250      0.00002254  
H     -0.52491597     -4.74540691      3.63331870      2.98682517e+00    1.05585169e+00    1.50389325e+00       -0.00000295     -0.00003412      0.00002485  
H     -0.55233252     -4.79546079      3.58270291      1.92605584e-01    6.97575868e+00   -3.64489282e+00       -0.00000346     -0.00003606      0.00002569  
H     -0.56273785     -4.78110071      3.53383748      6.94656182e+00    1.54513607e+01    5.56575539e+00       -0.00000357     -0.00003742      0.00002640  
H     -0.53631370     -4.78930176      3.48057963      1.43910736e+01   -4.91657676e+00    1.19550090e-02       -0.00000355     -0.00003924      0.00002798  
H     -0.62226048     -4.76726958      3.50992885      6.72972005e+00    5.89424428e+00   -5.40621427e+00       -0.00000426     -0.00003882      0.00002846  
H     -0.59637335     -4.82767465      3.48118629      2.00262161e+00   -6.82535702e+00    4.70167074e+00       -0.00000439     -0.00003784      0.00002689  
H     -0.67329091     -4.69965170      3.46702823     -4.88041234e+00    1.03180307e+01    3.08049394e+00       -0.00000539     -0.00003990      0.00002864  
H     -0.65601171     -4.79816514      3.47385811      7.65006693e+00    5.61304069e+00   -7.29251914e+00       -0.00000543     -0.00003796      0.00002685  
H     -0.68764104     -4.93700764      3.48937963     -6.23011329e+00    6.86069451e+00    2.98246385e+00       -0.00000503     -0.00003319      0.00002369  
H     -0.63924862     -4.88192663      3.48946261     -1.00243738e+01   -9.25866729e+00   -6.90720324e-01       -0.00000451     -0.00003234      0.00002289  
H     -0.63809351     -4.85381968      3.45895411     -7.68508604e+00   -3.65695423e+00   -7.92165734e+00       -0.00000482     -0.00003480      0.00002460  
H     -0.55092584     -4.87601794      3.50406817      9.60262909e+00    8.47588762e+00   -3.76197097e-01       -0.00000430     -0.00003386      0.00002458  
H     -0.56843117     -4.99371854      3.51228813      2.43242451e+01    1.80988897e+00   -3.08769879e+00       -0.00000445     -0.00003369      0.00002416  
H     -0.57602077     -4.97192786      3.61945825      4.08338224e+00   -2.26401514e+00   -1.70872739e+01       -0.00000406     -0.00003314      0.00002410  
H     -0.48974604     -4.99733261      3.62161446      9.09885813e+00    9.73626875e+00    3.25652695e+00       -0.00000358     -0.00003189      0.00002349  
