96
100000  xi=   0.99167046  Mean pot=   -99.67194814  Cent pot=  -100.01234981 kcal/mol
H      0.22306486     -0.75046594      0.42850959     -2.10186982e+01    1.19880851e+01    1.51173905e+01        4.16678290     -2.75935047      1.46439706  
H      0.17308867     -0.76320288      0.39733887      1.06371707e+01   -4.25370075e+00    7.41185862e+00       -0.73199626     12.47390271     -4.66474351  
H      0.29292397     -0.79755603      0.45537719      3.35264262e+00    4.57915431e+00    3.88001436e+00       -2.55114410     14.44003183     -7.20032692  
H      0.24453571     -0.81555389      0.47133471     -6.21929251e+00    8.85163653e+00    1.80019830e+00       -3.86770726     16.98403033     -8.23897720  
H      0.13853583     -0.84999899      0.38689641      1.16093589e-01    2.30951408e+00    2.63595092e+00       -4.43785788     23.06739439     -9.17743336  
H      0.03583173     -0.82065418      0.35793960     -5.92441751e-01   -4.66117270e+00    1.27883721e+00       -4.85260878     31.50050457    -10.77565242  
H      0.01918804     -0.79360603      0.30599185      3.66406164e+00   -5.99270259e+00   -5.21023688e+00       -5.40419605     27.96559572     -7.18810239  
H      0.08491236     -0.80033916      0.28468502      5.78323438e+00    4.90695968e+00    1.22682041e+01       -4.57638656     15.65517907     -1.66948978  
H      0.18503559     -0.89430658      0.21677070     -4.57132523e+00    2.37883140e+00    5.75353347e+00       -5.07929282     10.45030023     -1.47338087  
H      0.21046795     -0.91340051      0.25398146     -6.77702554e+00    8.81609689e+00   -1.00776970e+01       -4.98612004     11.08544452     -3.28062536  
H      0.20663563     -0.86921138      0.31130171     -1.89691032e+01    8.70873566e+00    2.64880423e+00       -2.43809705    -18.15294158     10.23993843  
H      0.24107994     -0.77446043      0.42947626     -5.07960400e+00    9.55872042e+00   -1.49771100e+01       -1.92587177     -3.10505886      6.35912456  
H      0.18340671     -0.71855289      0.39567981      7.52769020e+00    4.36363370e-01   -9.32322884e+00       -5.60202590     23.57335100     -9.85728510  
H      0.05536128     -0.68969610      0.38244191     -1.53949462e+01    2.52656305e-01    1.04476038e+01        1.81689222     43.42113046    -20.99943167  
H      0.11678368     -0.72897518      0.34642791      4.20366369e+00    5.43470392e+00    3.06430004e+00        0.02134661     59.77786360    -40.52972579  
H      0.21350398     -0.72675904      0.34556483     -4.24227770e+00    3.04282301e+00   -1.14377358e+01       -4.76089561     16.69432096     -6.39244418  
H      0.12180841     -0.80418184      0.31395830      1.33291616e+01   -1.16807048e-01   -1.13389698e+01       -4.09048882      7.16416404     -2.33140766  
H      0.14527650     -0.85559184      0.25872411     -5.75847518e-01   -1.28447428e+01    1.38576149e+01       -6.01109006    -13.72106005      2.16301160  
H      0.14495882     -0.78992969      0.32721812      6.47116587e-01   -8.45570671e-01   -1.95838554e+00       -3.50993362     -1.09254903     -1.47200825  
H      0.14475073     -0.75132119      0.33206794     -8.81212643e+00   -5.64391921e+00   -1.15602139e+01       -0.87949543      6.06036945     -3.52117717  
H      0.16035100     -0.79238312      0.35290347      4.29624420e+00    1.62424552e+01   -7.23760251e+00       -3.59862658     16.92780268    -11.06772228  
H      0.24367442     -0.82211120      0.37307002     -5.55813698e+00   -6.67468503e+00   -1.24098507e+00        9.51715286    -10.59172723      4.36119911  
H      0.07046861     -0.82750404      0.44438654     -7.78347269e+00    7.68864804e+00   -8.44448925e+00       -0.30478623      1.39035253     -0.54712758  
H      0.17697670     -0.91340513      0.38339779      8.53099614e+00    2.30877185e-01   -7.27047470e+00        1.49880740     -3.73353074      1.45007080  
H      0.11426547     -0.91737491      0.36444117      1.54569824e+01   -8.30855809e-01    9.21503622e+00       -0.56538833      1.92139506     -2.07488582  
H      0.26385577     -0.91379856      0.30479223     -4.91902716e+00    3.18344379e-01   -3.37116557e+00        5.46766013    -28.43203955      5.24790011  
H      0.20746942     -0.91547740      0.35676065     -2.46700935e+00   -3.44898081e+00    9.14261602e+00        2.84969305    -11.31469234      4.12210168  
H      0.21270802     -0.83806628      0.41009110     -5.77287461e+00    1.86312529e-01    1.36216058e+00       -4.75530770     22.14831885    -10.28818336  
H      0.28114656     -0.80330165      0.30190875     -9.26863531e+00    1.52435297e+01    6.73624126e+00       -9.86444689     28.29951561    -10.85311876  
H      0.32259331     -0.81807000      0.40194379     -7.17862120e-01   -1.02983576e+01    2.76703582e+00       18.06811846    -29.66582731      0.11083330  
H      0.22663600     -0.73993483      0.43886722      2.78566370e+00   -2.69365707e-01   -3.79410842e+00        3.02588831      1.18238994     -1.53979446  
H      0.11163553     -0.62694303      0.44058994     -3.10114690e+00    1.64269571e+01   -7.99005933e+00       -4.00089085     19.84276773    -11.75133487  
H     -0.06790211      0.07978555      0.03096549     -2.65790834e+00    4.21634186e+00    9.37902577e+00       -7.17241523     -4.08808231      1.57248424  
H     -0.05644671      0.17001866      0.01110175      9.83697140e-01   -4.25168754e+00    1.56006993e-01       -1.95316322     -5.65147708      1.62646406  
H     -0.07977126      0.15994776      0.09132571      2.80193756e+00    1.48260800e+00   -3.05137063e+00       -1.44082559     -4.52448175      3.50415457  
H     -0.09963268      0.10398551      0.18878678     -2.15838629e+01   -6.99916323e+00    7.37569852e+00       -1.08439619      1.01904216      0.53986882  
H     -0.03751928      0.16385083      0.17795860     -6.18543722e+00   -9.08055379e+00    1.41693009e+01       -2.66719605     10.96367517    -10.07239696  
H     -0.15794629      0.09699678      0.15232279     -5.17782103e+00   -9.76179852e+00   -5.96253577e+00        0.27662597     18.38348338    -12.71105461  
H     -0.07185372      0.09159630      0.02186581      5.22797279e+00    6.12987792e+00    5.29051808e-01       -3.51960217      9.71229091     -1.33442534  
H     -0.02563663      0.09440653     -0.00154246     -8.19176924e-01   -5.12444619e+00   -1.16583662e+01        2.31447431     -0.88147646     -2.50494610  
H      0.02195006      0.14156189     -0.02451370     -8.17739387e-01   -2.86140545e+00   -8.71731379e+00       10.04202084    -10.26443091      0.03337666  
H      0.06929631      0.01342984      0.08088225     -1.64322875e+00   -9.30965695e+00   -1.58799134e+00        4.21451464     -0.90690506      1.66544298  
H      0.11060027     -0.01661190     -0.03907249      1.14291213e+00    2.53878074e+00   -2.66948927e+00        8.61007654     14.97572199    -12.53988601  
H      0.12300500     -0.10390857     -0.00987556     -3.43477954e+00    1.22737685e+01    5.19082272e+00       -1.41718923     14.23599859    -11.23323765  
H      0.14189043     -0.05656775      0.00535181     -4.00098082e+00   -2.06823493e+00    7.31885288e+00        0.22476571     -4.67620614      2.82439471  
H      0.16414577     -0.05452541      0.04817270      4.59036074e+00   -4.51044726e-01    4.40569518e-01       -6.41630928    -22.32068703     12.60116747  
H      0.16209714     -0.17879059     -0.08559076      5.28203652e+00   -3.73260764e+00    9.94071718e+00       -6.07750227    -35.10322568     31.73012358  
H      0.13482162     -0.06173047     -0.03790728      7.18918163e-01   -6.01318416e+00    2.70780275e+00        0.16289317     -0.70888643      0.31702589  
H      0.13440893     -0.01729178     -0.03345455      5.78841889e+00   -1.08681950e+01   -3.39495547e+00        4.14297875      3.67703453     -2.43104407  
H      0.16162677      0.07607690     -0.00065435      5.44511331e+00   -9.76391761e-01   -5.31375150e+00       16.59732295      7.91357722      2.52294230  
H      0.08156637     -0.00358416      0.03111613      4.96713354e+00   -7.46574468e+00   -3.26589768e+00        2.55873775     10.61510485     -2.20981909  
H     -0.05156785      0.01269949     -0.07449844     -1.80245048e-02    1.03959243e+01   -7.30577813e+00       -1.17649177      1.33316705     -0.34496272  
H     -0.07188121     -0.13640515     -0.01477695     -3.46984315e+00   -4.85738967e+00   -1.79512618e+01        0.17450179     -1.96139822      1.44236369  
H     -0.12818613     -0.06554167     -0.04662492      1.02927406e+01    1.02951541e+01   -4.64302348e+00      -13.53402568      5.02785093      1.09687878  
H     -0.00191727     -0.24030974     -0.06917667     -1.06015829e+00   -9.24800850e-01   -1.74820452e+00       -1.00233205      8.22523165     -7.25213010  
H      0.02327839     -0.24941011     -0.02764498      1.36067598e-01    6.49418830e+00    5.10481292e+00       -3.18375486     13.00519876     -7.81552809  
H      0.08237716     -0.23871577      0.00301886     -3.63308234e+00   -1.20317534e+01   -5.36676270e+00       -0.51216432      8.46703431     -4.76219787  
H      0.11203177     -0.09356726      0.05022525     -4.62272649e+00    3.78249336e+00    8.22850287e+00       -6.23356768     32.13192250     -4.98146853  
H      0.05388693     -0.19230681      0.00178364     -1.08961571e+01   -2.52273247e+00    7.21058643e+00       -4.33391693     19.01090530     -8.38143988  
H      0.03812531     -0.16455162      0.16813329     -1.00847713e+00   -8.43921505e+00    3.95350246e+00        3.06537236     -9.70074447      2.18220371  
H     -0.00097012     -0.13767192      0.15553513     -7.16628820e+00    1.69667382e+01   -8.23258484e+00        6.11666662    -12.31225803      0.75470685  
H     -0.07729344     -0.00299854      0.24498876      2.45166993e+00   -4.51265617e+00   -1.16397458e+00      -21.54644598     30.16268848      4.95040253  
H     -0.08582150     -0.06696419      0.10258211      2.98535377e+00   -2.59970231e+00   -1.20907313e+01       -6.44854991      9.29859308     -4.08078794  
H     -0.07036171      0.09712272      0.10657253      7.59434871e+00    1.68511125e+00    2.31189658e-01        0.28418477     -2.42247314      1.97240782  
H     -0.08476088      0.92525111     -0.36136153     -4.89939376e+00    1.29454516e+01    7.12902090e-01        3.00563233      6.84743278     -3.03688129  
H     -0.04090836      0.94244136     -0.26478120     -1.61252058e+00    9.03775283e-01    4.54296223e+00        2.68515948     -6.82242563      3.03827945  
H     -0.05550783      0.83590869     -0.32578614      1.04346150e+01   -7.17619734e+00   -6.10383533e+00        3.99196969     -9.91555008      3.69617235  
H     -0.15566934      0.76990239     -0.25026205     -1.15935507e+01   -1.33097897e+01    5.30802200e+00        4.95210345    -18.00307249      7.69910838  
H     -0.17239221      0.74817875     -0.28435721     -7.68133710e+00    6.48811008e+00   -5.65493842e+00        7.10505393    -34.03106956     19.24983032  
H     -0.18514573      0.75432455     -0.22554835      6.69071116e+00   -9.28347333e+00    1.84196970e+01        4.57598280    -49.88398795     23.48670703  
H     -0.30846892      0.83986409     -0.10537869      1.01469814e+01   -4.28357566e+00   -3.89950203e+00        8.92379822    -37.67788663      8.52252773  
H     -0.30840085      0.89613372     -0.02588200     -9.49937273e+00    1.21973276e+01   -1.28814627e+01        2.26191225    -14.77370260      4.17443588  
H     -0.41154304      0.84210674     -0.09726304     -2.73018383e+00   -4.65194906e+00    9.56711932e-01       -4.96272802     -0.18586932      1.44000421  
H     -0.28785080      0.76368243     -0.14837424      2.41373974e+00    9.66365743e+00    8.80433760e+00        0.77160540    -10.17853946      1.61518238  
H     -0.41118271      0.87124970     -0.14237305      4.83677077e-01   -4.68863357e+00    3.43469931e-01       -6.17197949      3.17721959      2.29994758  
H     -0.33596412      0.92829846     -0.20134047     -7.05496343e+00    7.98052763e+00    1.19991299e+01        3.34306100    -11.13093973      4.87411309  
H     -0.27976563      0.91759297     -0.21559177      5.58536437e+00    3.95064521e+00   -8.57336901e+00        5.37726020    -18.89714486      7.03289040  
H     -0.22986266      0.97696265     -0.30663434     -5.02300367e+00   -2.94692028e+00    1.32234441e+01        4.59941706    -21.10044343      8.39826419  
H     -0.21005771      0.89215099     -0.32460289     -4.23560399e+00   -1.32556400e+01    1.97502224e+00        6.05615566    -24.67463792      8.79960222  
H     -0.27405869      0.95687412     -0.29049975      5.87002242e+00   -1.29211441e+01   -6.74747686e+00        4.59800245    -15.98543453      6.07541828  
H     -0.16664909      0.84396704     -0.35143991     -7.48233607e+00    1.11100800e+01    8.17118539e+00       -0.05248993    -10.84119857      4.76245173  
H     -0.32589289      0.85135398     -0.36039291     -6.84693960e+00   -7.81655711e+00    5.26273122e-01      -10.58623289      5.80748284     -4.68595390  
H     -0.29865333      0.82840361     -0.44609277     -1.36449050e+01    1.19329640e+01   -7.43271551e+00        0.95119587     -9.52255582      3.68182734  
H     -0.20489282      0.81592638     -0.52512138     -6.90009799e+00   -2.08987432e-01   -4.15047920e+00        2.05598720     -7.39353650      3.86613989  
H     -0.16131610      0.71317838     -0.63040287     -8.65337874e+00   -1.00387532e+01    1.50607109e+01        3.42412479    -14.96640446      9.62535859  
H     -0.13336621      0.73929366     -0.63023062     -1.96505210e-01    5.46131940e+00    7.96862545e+00        4.01687282      5.56387630     -5.45807789  
H     -0.13877683      0.70655004     -0.79633370     -7.34623427e+00    9.38233346e+00    5.55792602e+00        1.30711828     -9.61558419      7.79925767  
H     -0.10305045      0.69580766     -0.73825545      4.58487240e+00    2.77783111e-02   -1.57167062e+00        1.68494746     -9.27166801      6.36545729  
H     -0.05542628      0.79058458     -0.74311104     -1.17672112e+01   -2.85366096e+00   -2.99187703e+00        1.07755265    -10.38842937      6.83708369  
H     -0.02418152      0.78389241     -0.67941495     -5.62434114e+00    3.30216937e+00    7.72751531e-01        0.76590755     -3.69988295     -0.26643159  
H     -0.08645689      0.75309735     -0.65597740      2.18155253e+00   -5.22969564e+00    1.85147879e+00        1.48422388     -7.69621296      4.25933819  
H     -0.04915046      0.87117781     -0.63249540     -1.89284113e+00    7.76985164e+00    3.05391821e+00        1.68993534    -12.44757438      8.10597964  
H     -0.13049503      0.79313087     -0.62517951     -1.07812702e+01   -3.32443766e-01    7.03698645e+00        3.74778027    -15.98725757     10.09841191  
H     -0.11689798      0.82599595     -0.49994207     -4.84619280e+00   -1.35242511e+00    4.67411278e+00        3.47832752     -0.49686117     -5.06123583  
H     -0.16074961      0.86538062     -0.45833256      3.61938072e+00    1.92398497e+01   -1.60762867e+01        3.42266160    -10.48098302      5.62058240  
H     -0.19583660      0.87744551     -0.43943597     -1.98616805e+00   -4.83970234e+00    8.15764841e+00        3.71670608    -17.42029459      9.77892705  
