3
100000  xi=   0.28685237  Mean pot=  -106.56347479  Cent pot=  -109.12554351 kcal/mol
H      1.40647833      3.73872052     -1.11720967       0.23603113
H      1.47249837      3.22656261     -0.62616537       0.21420537
H     -2.87897670     -6.96528313      1.74337504       0.19078835
3
200000  xi=   0.28567756  Mean pot=  -105.19698093  Cent pot=  -109.18867951 kcal/mol
H     -1.64122770      3.75511830      0.54020306       0.22431158
H     -1.49127345      3.16502660      1.01121784       0.16950511
H      3.13250115     -6.92014489     -1.55142090       0.20171803
3
300000  xi=   0.28877946  Mean pot=  -105.89656793  Cent pot=  -109.37167631 kcal/mol
H     -1.68184221     -2.28733217      2.99853129       0.19010975
H     -1.11202666     -2.35831851      2.50156920       0.16814090
H      2.79386887      4.64565068     -5.50010049       0.14317069
3
400000  xi=   0.29964390  Mean pot=  -106.50752732  Cent pot=  -109.49614005 kcal/mol
H      2.12106301     -2.85202359      0.52968159       0.16796942
H      2.84086572     -2.77727546      0.70073702       0.14937651
H     -4.96192873      5.62929905     -1.23041861       0.23878459
3
500000  xi=   0.27891132  Mean pot=  -107.25445049  Cent pot=  -109.47143221 kcal/mol
H      2.66014981      2.55612550      1.81701319       0.16260686
H      2.38964039      1.92044514      2.10811220       0.14947564
H     -5.04979019     -4.47657064     -3.92512539       0.20826778
3
600000  xi=   0.27991263  Mean pot=  -105.31951651  Cent pot=  -108.98386579 kcal/mol
H     -2.74233935      1.61528518     -2.44087608       0.22631713
H     -3.08835783      1.24498922     -1.85027232       0.17159969
H      5.83069718     -2.86027440      4.29114839       0.22089866
3
700000  xi=   0.29258108  Mean pot=  -103.59611210  Cent pot=  -106.35705173 kcal/mol
H      2.73414817     -1.07527979      2.59007252       0.16679797
H      2.10012544     -1.60894357      2.71303220       0.16022275
H     -4.83427361      2.68422336     -5.30310472       0.20563233
3
800000  xi=   0.28843558  Mean pot=  -107.17894374  Cent pot=  -108.68326434 kcal/mol
H      2.09685637     -3.11230997      1.80543957       0.24371170
H      1.66509897     -2.56317179      1.83816163       0.15585709
H     -3.76195534      5.67548176     -3.64360120       0.15744986
3
900000  xi=   0.28431183  Mean pot=  -107.61199369  Cent pot=  -107.70970292 kcal/mol
H     -3.58472911      0.66389235     -0.01827350       0.19435642
H     -4.01207434      0.78073316      0.49796363       0.17797575
H      7.59680345     -1.44462551     -0.47969013       0.12577256
3
1000000  xi=   0.28374935  Mean pot=  -106.21227817  Cent pot=  -109.28761848 kcal/mol
H     -3.33595862      0.01069740     -1.56772657       0.15716926
H     -3.81688939     -0.49340750     -1.38754329       0.18079556
H      7.15284801      0.48271011      2.95526986       0.30289537
3
1100000  xi=   0.29622119  Mean pot=  -106.92536588  Cent pot=  -109.40145595 kcal/mol
H     -0.94110286      0.98073703      3.88369611       0.24298124
H     -0.36441055      0.99568271      3.39334168       0.16394605
H      1.30551341     -1.97641975     -7.27703778       0.20533613
3
1200000  xi=   0.28166169  Mean pot=  -106.65014477  Cent pot=  -109.39529151 kcal/mol
H     -2.03118842     -2.68621403      1.23266320       0.17683369
H     -2.55624275     -3.20110313      1.05044241       0.19776894
H      4.58743117      5.88731717     -2.28310560       0.18229293
3
1300000  xi=   0.28172493  Mean pot=  -105.80131554  Cent pot=  -109.47237338 kcal/mol
H      2.49531099      2.10524110      2.46553420       0.17304159
H      2.22803000      2.35447692      1.81114388       0.21010182
H     -4.72334099     -4.45971802     -4.27667808       0.23414275
3
1400000  xi=   0.28821675  Mean pot=  -106.58379556  Cent pot=  -109.30975748 kcal/mol
H      1.60201834     -3.37786625     -0.43229873       0.18772457
H      1.00428987     -3.77950468     -0.68574549       0.13670868
H     -2.60630821      7.15737094      1.11804422       0.20440875
3
1500000  xi=   0.30266237  Mean pot=  -106.70586928  Cent pot=  -108.65102526 kcal/mol
H      3.03619976      1.36546210     -1.15846619       0.24329421
H      3.24509978      1.95554703     -1.46845485       0.22897532
H     -6.28129953     -3.32100913      2.62692104       0.18960392
3
1600000  xi=   0.29532557  Mean pot=  -107.28789120  Cent pot=  -109.49499108 kcal/mol
H      0.60290070      0.83161537     -3.36487042       0.16253326
H      0.96916359      0.66049593     -3.98972162       0.17087942
H     -1.57206429     -1.49211131      7.35459204       0.15768234
3
1700000  xi=   0.28587503  Mean pot=  -107.12213209  Cent pot=  -109.49733252 kcal/mol
H      3.19732614      2.17198604     -1.29366491       0.20661055
H      2.48658009      2.37859165     -1.31909264       0.14115475
H     -5.68390623     -4.55057769      2.61275755       0.18116700
3
1800000  xi=   0.28896152  Mean pot=  -104.61471092  Cent pot=  -108.49538121 kcal/mol
H      3.26375585     -0.58714718     -2.34402284       0.18212710
H      3.29871650     -0.26640019     -1.61898845       0.17722519
H     -6.56247235      0.85354737      3.96301129       0.19352453
3
1900000  xi=   0.28761101  Mean pot=  -106.73869968  Cent pot=  -106.44692061 kcal/mol
H      3.51132951      0.99982274      1.40241073       0.22044263
H      3.59872801      0.40061029      1.13227243       0.22200967
H     -7.11005752     -1.40043303     -2.53468317       0.17034496
3
2000000  xi=   0.29936134  Mean pot=  -107.29214899  Cent pot=  -109.02618197 kcal/mol
H     -2.87731633     -1.38750522      2.44387720       0.19942745
H     -2.89974504     -1.19720301      1.76118479       0.19029020
H      5.77706137      2.58470823     -4.20506198       0.19002597
