3
100000  xi=   0.84898514  Mean pot=  -107.13206982  Cent pot=  -109.20370848 kcal/mol
H     -0.25827389      0.10566307     -0.70353546       0.18547329
H     -0.57123326      0.41971168     -1.26255761       0.19050521
H      0.82950715     -0.52537475      1.96609307       0.18945051
3
200000  xi=   0.85307178  Mean pot=  -107.46979184  Cent pot=  -106.58222144 kcal/mol
H      0.38221209     -0.77227355     -0.87113662       0.23683395
H     -0.20140884     -0.61723274     -0.59381669       0.21179569
H     -0.18080325      1.38950629      1.46495331       0.17035766
3
300000  xi=   0.84286472  Mean pot=  -106.94084041  Cent pot=  -107.88932791 kcal/mol
H      0.83768067     -0.84142127      0.07850470       0.13309658
H      0.98267719     -0.18924817     -0.06184172       0.18357649
H     -1.82035786      1.03066945     -0.01666299       0.23193845
3
400000  xi=   0.86240251  Mean pot=  -108.15723676  Cent pot=  -109.39958482 kcal/mol
H     -0.45461732      0.37608115     -0.69598528       0.17781698
H     -0.78059978     -0.27075315     -0.78847235       0.18681470
H      1.23521710     -0.10532799      1.48445763       0.20184148
3
500000  xi=   0.85550343  Mean pot=  -107.36993967  Cent pot=  -109.29558518 kcal/mol
H      0.19033446      0.46490945      0.84795645       0.17770615
H     -0.08221138      1.05586302      0.44862139       0.16207586
H     -0.10812308     -1.52077247     -1.29657784       0.21084848
3
600000  xi=   0.85466003  Mean pot=  -104.69372119  Cent pot=  -109.13792210 kcal/mol
H     -0.34695200     -1.17098083      0.54449940       0.21398725
H     -0.56355109     -0.65018560      0.01531106       0.17126464
H      0.91050309      1.82116642     -0.55981046       0.16322736
3
700000  xi=   0.85365347  Mean pot=  -106.84366409  Cent pot=  -109.51518653 kcal/mol
H     -0.56320150      0.16492186      0.43392763       0.18200019
H     -1.03149156      0.55220802      0.87587834       0.19088933
H      1.59469306     -0.71712988     -1.30980597       0.18796968
3
800000  xi=   0.85604857  Mean pot=  -107.59867066  Cent pot=  -105.98556350 kcal/mol
H     -0.19993798      0.61440589      0.43222540       0.26282590
H     -0.03603990      0.78595774      1.04565040       0.21443253
H      0.23597787     -1.40036362     -1.47787579       0.17860028
3
900000  xi=   0.85463762  Mean pot=  -107.24839315  Cent pot=  -109.34338076 kcal/mol
H      0.75603027     -0.15739393      0.14914743       0.17267714
H      1.35966931      0.30749961      0.20507890       0.16762263
H     -2.11569959     -0.15010568     -0.35422633       0.14864901
3
1000000  xi=   0.85187854  Mean pot=  -107.95539301  Cent pot=  -109.48096369 kcal/mol
H      0.25649348      1.18941795      0.13086838       0.23344236
H      0.01768178      0.82514704     -0.48030135       0.20553686
H     -0.27417526     -2.01456499      0.34943297       0.16868053
3
1100000  xi=   0.85798150  Mean pot=  -106.29240004  Cent pot=  -109.45515045 kcal/mol
H     -0.07801096      0.84143642     -0.08769120       0.24071828
H     -0.42452584      1.10625782      0.52737821       0.17366552
H      0.50253680     -1.94769425     -0.43968701       0.14825415
3
1200000  xi=   0.84169032  Mean pot=  -104.54016592  Cent pot=  -109.36714033 kcal/mol
H     -0.26782890     -0.08447306     -0.75912155       0.15063686
H     -0.53123898     -0.51275399     -1.27574769       0.16469679
H      0.79906787      0.59722705      2.03486924       0.14801325
3
1300000  xi=   0.84328021  Mean pot=  -107.15392372  Cent pot=  -109.45343063 kcal/mol
H     -0.20419689     -1.01732561      0.09053160       0.19072241
H     -0.58306341     -0.77295571      0.66314445       0.15582766
H      0.78726030      1.79028132     -0.75367605       0.27464183
3
1400000  xi=   0.85721439  Mean pot=  -106.68255718  Cent pot=  -109.21416487 kcal/mol
H      0.13704232     -1.15485905     -0.40615593       0.20269331
H      0.00121367     -0.87054817      0.29509069       0.24123835
H     -0.13825599      2.02540722      0.11106523       0.26372437
3
1500000  xi=   0.84259676  Mean pot=  -103.89032938  Cent pot=  -108.37989480 kcal/mol
H     -0.05409955      0.56193692     -1.27734878       0.16033156
H      0.43996235      0.50541505     -0.65344547       0.16571591
H     -0.38586280     -1.06735196      1.93079425       0.20789432
3
1600000  xi=   0.85715332  Mean pot=  -106.99390391  Cent pot=  -109.51000616 kcal/mol
H     -0.09517277     -0.58063318      1.11482448       0.19279560
H      0.34813024     -0.61504780      0.51999926       0.16774823
H     -0.25295747      1.19568098     -1.63482373       0.17068236
3
1700000  xi=   0.83867328  Mean pot=  -106.91024937  Cent pot=  -109.31537880 kcal/mol
H      0.71970504      0.79178361      0.78296853       0.18140491
H      0.76220929      0.03986116      0.64623779       0.19838896
H     -1.48191433     -0.83164477     -1.42920632       0.18557993
3
1800000  xi=   0.85828599  Mean pot=  -107.48826819  Cent pot=  -109.34551922 kcal/mol
H      0.20163682      0.25074348     -1.11160131       0.21759313
H     -0.34370254      0.49956790     -0.70559158       0.21578107
H      0.14206572     -0.75031138      1.81719288       0.18703146
3
1900000  xi=   0.85070587  Mean pot=  -104.86510970  Cent pot=  -109.43388844 kcal/mol
H      0.79705979      0.19868937      0.48896744       0.16794602
H      0.40767482      0.47743330      1.03713246       0.24502009
H     -1.20473461     -0.67612267     -1.52609990       0.18066653
3
2000000  xi=   0.85460631  Mean pot=  -105.41848739  Cent pot=  -108.96186186 kcal/mol
H     -0.63049360     -0.27894427      0.22751598       0.13983350
H     -1.35036743     -0.57996840      0.19080806       0.22698263
H      1.98086103      0.85891267     -0.41832404       0.30307813
