96
100000  xi=   0.86765755  Mean pot=  -106.66629101  Cent pot=  -108.28995743 kcal/mol
H     -0.52746135      0.10850100     -0.56527395     -1.58863491e+00   -2.14574789e+00    2.22385740e+00       -9.78128684     15.08923189     21.04766797  
H     -0.48668990      0.09744891     -0.55640922     -1.71222994e+01   -9.15305804e+00    1.89446413e+00       -4.72237359     14.15376960     16.00942659  
H     -0.35078955      0.15164257     -0.56950069     -1.33702143e+01    4.68663487e-01   -2.03989684e+00       -0.77571795     12.36027876     10.56293620  
H     -0.44883697      0.20892037     -0.62590019     -3.67493396e+00   -1.77948089e+00   -9.25641624e+00       -4.77028008     26.89741512     14.19251446  
H     -0.48844635      0.10371751     -0.67503347     -9.27320419e+00    5.68618100e+00   -1.33994738e+00       58.25513655   -100.05803236    -49.51035990  
H     -0.55359530      0.28511330     -0.64649984     -4.06499230e+00    1.64061839e+00    6.03631723e+00       -7.00082672     13.59249412      8.77358783  
H     -0.62238999      0.39586610     -0.70293744      3.99449192e+00   -6.30138939e+00    7.03355422e+00      -39.33010818     50.91664291     35.99373196  
H     -0.65020512      0.35390557     -0.66102204      7.45341956e+00   -1.29401665e+01   -5.49533444e+00      -41.69482979     53.66764510     40.18306436  
H     -0.64201606      0.24819819     -0.66155962     -7.71447689e-01   -2.18474365e+00   -6.63858042e+00      -18.73600635     22.59652251     18.10367507  
H     -0.78248222      0.26929177     -0.55895878     -7.01836006e-01   -1.12890311e+01   -6.28682436e+00      -27.06020651     29.93798827     35.48882363  
H     -0.65745734      0.18128657     -0.60995028     -1.04383357e+01   -6.66844804e-01   -3.23604529e+00       25.53368306    -57.86959041    -80.44535165  
H     -0.74091977      0.22083594     -0.63617600     -4.80015931e+00    3.30493064e+00    1.18291845e+01       57.47924415    -86.35043773   -120.51670508  
H     -0.76800857      0.20602963     -0.53169443      4.34901887e+00   -1.44795125e+01   -1.47698749e+01        8.96146134    -28.64585627    -39.30593656  
H     -0.83165613      0.14611665     -0.56152206     -1.08769004e+01    1.17720755e+00   -1.79930062e+01        5.02459534     -9.83266498    -19.28128025  
H     -0.82256703      0.18065615     -0.48266438     -7.76766983e+00    1.45586326e+01    1.23610804e+00       -4.63149448     18.87206954     32.79697707  
H     -0.72088721      0.04317861     -0.40670700      1.77403487e+00   -6.85727646e+00    1.13823798e+01       -0.86371799      3.56487650     14.40220660  
H     -0.77954111      0.08877945     -0.41712692      7.00314141e+00   -9.38235384e+00   -4.41805328e+00      -15.88837023      7.09017987     48.11775856  
H     -0.79085942      0.13686284     -0.37671899      1.25532171e+00    5.21409526e+00   -3.59581556e+00      -14.12123112     19.42810009     57.28918787  
H     -0.73425914      0.11495466     -0.38128640     -1.69770313e+00   -4.35299416e+00    1.33219318e+01       -8.32085396     17.97236044     32.56275627  
H     -0.85806417      0.05680548     -0.44549986     -9.62359947e+00   -4.91864157e+00   -3.68304652e+00        4.42994797     -3.93946805     -6.32190479  
H     -0.80708175      0.10832204     -0.43975977      1.24285050e+01   -1.30498304e+01   -2.79579437e+00        4.04316165     -7.28465459     -8.06872142  
H     -0.80035412      0.05009893     -0.40830862      2.73500415e+00    3.85677739e+00    4.77762536e+00       -8.33905037     11.75333937     16.31551031  
H     -0.68120854      0.03068360     -0.43008890      3.14756353e+00   -3.77856366e+00    3.79125350e-01       32.29348766    -39.81509836    -66.50789696  
H     -0.58975653      0.02368784     -0.38055174     -2.14040929e+00    3.12178123e+00   -3.61512696e+00       47.03223551    -64.19146147   -157.90367730  
H     -0.44724263      0.03855698     -0.32797250     -1.75254841e+00    9.51786492e+00    2.64019088e-01        1.70189298    -16.74729184    -37.42994683  
H     -0.39247313      0.01053217     -0.47726177      1.48313594e+00    4.56817935e-01   -1.28906656e+01       -0.10561402    -39.17953314   -115.29826273  
H     -0.45647870      0.11772024     -0.42872644     -2.37961784e+00   -5.45542652e+00   -1.33596654e+01        1.59950701     -5.28881793    -20.45365778  
H     -0.55006835     -0.03797364     -0.35401420     -9.74742260e+00   -5.93716668e-01    1.19677671e+00      -18.86860687      0.25973679     59.18766070  
H     -0.50131720     -0.12647996     -0.46994335     -2.75030056e+00    1.54599251e+01    6.33742831e+00       13.22685575      9.83340123    -70.33244402  
H     -0.53086123     -0.18476906     -0.46213352      4.75299668e+00    5.73382365e+00    2.48401311e-01       33.30503414      6.89591700    -73.48257226  
H     -0.60681166     -0.13924025     -0.43411915      1.45192377e+01    2.74630201e+00    6.00057207e+00       23.70971399     -1.34142167    -53.85346299  
H     -0.57401100     -0.09692739     -0.57216143      7.17907887e+00    3.57571595e+00   -1.93688656e+00       73.16534366    -41.67163214   -170.95666995  
H     -0.25113292     -0.31653514     -1.15691841      8.22303111e+00    3.96236912e-01   -1.04292856e+01        9.87726927    -15.07214446    -20.86074950  
H     -0.31886481     -0.40156645     -1.11889914     -3.32456191e+00    2.88634330e+00    7.07595693e+00        4.84134069    -14.13150362    -15.79890626  
H     -0.31090830     -0.42977824     -1.06100248     -4.26133701e-01   -5.42522534e+00   -3.81124597e+00        0.99112329    -12.32474083    -10.18781674  
H     -0.32187334     -0.47832805     -0.98004281      5.19779935e+00    4.73184519e+00   -2.52939158e+00        5.23675822    -26.83311427    -13.36018401  
H     -0.19595631     -0.40095631     -0.92686712      7.74436758e+00    2.96471361e-01    2.00452387e+01      -57.92149338    100.05869989     50.03819162  
H     -0.24096892     -0.30608533     -1.01579663      2.39751463e+00    8.20414250e+00    9.82609161e+00        7.35354604    -13.58235109     -8.22517247  
H     -0.15346427     -0.20886563     -1.12773717      3.06350388e+00   -3.44656484e-01   -2.50961791e+00       39.64323117    -50.90416523    -35.50344732  
H     -0.17760101     -0.25265119     -1.11290692     -3.22089805e+00    1.51630680e+00   -1.37146619e+00       41.96454751    -53.68185331    -39.76399660  
H     -0.20838212     -0.26987663     -1.07024187     -1.28448351e+01    4.85949622e-01   -2.10340321e+00       19.07972167    -22.60726793    -17.58709728  
H     -0.36302509     -0.19134951     -1.10033519      5.28676138e-01    8.95794658e+00   -4.54815644e-01       27.51211195    -29.95860884    -34.85908835  
H     -0.49742087     -0.18558507     -1.12272300      1.16092769e+01   -1.41618628e-02    9.58245430e+00      -25.00876821     57.83813785     81.17452930  
H     -0.51931666     -0.11363701     -1.10441327      2.08291444e+00    3.15359814e+00    4.90496373e+00      -57.11198746     86.32498064    120.96106525  
H     -0.64578261     -0.19289962     -1.08230967      1.11515849e-02    8.93801371e+00   -6.80311020e+00       -8.57178083     28.65550939     39.81221718  
H     -0.67518753     -0.16933809     -1.18565598     -2.94406365e-01   -7.60068932e+00   -9.80048370e-01       -4.68427438      9.85625822     19.74050488  
H     -0.72413636     -0.21410804     -1.16690167     -1.18305774e+01    1.29948243e+01    2.28380854e+00        4.89084881    -18.85035250    -32.45059888  
H     -0.67186595     -0.14037813     -1.14318815      3.81423397e+00    8.02883390e+00    1.11108015e+01        1.06346267     -3.55517423    -14.13667884  
H     -0.52389315     -0.02497868     -1.18846686     -1.38804230e+01   -9.66751016e+00    3.92061013e+00       16.05667899     -7.07670252    -47.83977130  
H     -0.59862991     -0.12738757     -1.15580522     -9.86935730e+00   -3.48187478e+00    9.70090416e+00       14.20802848    -19.40694939    -57.14391790  
H     -0.55929002     -0.26077477     -1.06103882     -3.84368853e+00   -1.21646934e+01   -1.10994985e+01        8.47846492    -17.93202423    -32.31520756  
H     -0.49442573     -0.27515910     -0.98606677     -5.66009957e+00   -1.35111073e+00    6.51786850e+00       -4.22404137      3.99021904      6.61692615  
H     -0.56165711     -0.34737012     -0.95158992     -1.31715365e+01    6.57861622e+00   -2.17115079e+00       -3.78880686      7.34939128      8.41502542  
H     -0.50074018     -0.36625231     -0.98264374     -3.61715617e+00    7.69582726e-01    6.57167909e+00        8.62567362    -11.65590029    -15.87382645  
H     -0.42840979     -0.28353539     -0.95678735      5.90291067e+00    9.77033356e+00   -1.54436235e+01      -31.88556592     39.91166839     67.09905605  
H     -0.42994859     -0.19666523     -0.92357839      7.95394164e+00    1.56113653e+01    5.77921970e+00      -46.41199394     64.38023552    158.82230798  
H     -0.42402153     -0.24458077     -0.96598616      1.95715470e+00   -1.31768478e+00   -4.18769957e+00       -1.05223025     16.93553570     38.47767674  
H     -0.39481765     -0.19411656     -1.08175835      1.29918847e+01   -6.99154349e+00    1.49751771e+01        0.59713346     39.25708264    116.14373527  
H     -0.41070997     -0.05941527     -1.12280660      6.25370081e+00   -5.56984332e+00    2.76964934e+00       -1.18229914      5.34001419     21.15278456  
H     -0.29148947     -0.04120591     -1.15772414      1.12511602e+01   -1.79323046e+01    6.91520370e+00       19.31629670     -0.16593975    -58.32865670  
H     -0.38035395     -0.03561160     -1.12502420      1.49785664e+00    7.80200777e+00    1.35195787e+01      -12.91771248     -9.77183662     70.81546100  
H     -0.25948247     -0.12852226     -1.06728309      1.34189116e+00    1.25952041e+01   -3.01464537e+00      -32.91755668     -6.82903685     74.12638227  
H     -0.33371796     -0.15500484     -1.05990544      4.48081863e-01   -6.54589054e+00   -6.17157731e+00      -23.47713987      1.38032804     54.23611505  
H     -0.34390700     -0.22827178     -1.11140388      1.38138142e+00   -3.05503585e+00    2.08224698e+00      -73.03758379     41.68398029    171.12741289  
H      1.11869613      0.05426494      1.81311804      1.73043778e+01    8.16792023e+00   -2.51361116e+00       -0.09598243     -0.01708744     -0.18691847  
H      1.16307812      0.03399702      1.75983931     -2.69323385e+00   -9.52970963e+00   -6.65420629e+00       -0.11896709     -0.02226598     -0.21052033  
H      1.15654821      0.00695761      1.68019167      4.82632464e+00    2.16623275e+01    2.28595781e+00       -0.21540534     -0.03553793     -0.37511946  
H      0.96973388     -0.00740079      1.56588059      4.14573078e+00    1.00513934e+01    3.38442342e-01       -0.46647813     -0.06430085     -0.83233045  
H      1.04442175      0.00274480      1.60286424      4.25401438e+00   -8.21453323e+00    8.16072986e+00       -0.33364317     -0.00066753     -0.52783172  
H      1.12297768      0.04639779      1.55134758      1.38100372e+00   -8.81975157e+00    3.68314530e+00       -0.35271932     -0.01014304     -0.54841536  
H      1.17880939      0.13790774      1.50432944     -2.69573067e+00    6.51151280e+00    6.49743363e+00       -0.31312299     -0.01247768     -0.49028465  
H      1.18767322     -0.05291979      1.56233646      2.58372188e+00   -9.86367136e-01   -1.14354747e+00       -0.26971772      0.01420822     -0.41906777  
H      1.13477276     -0.04430298      1.51078547     -1.00488290e+01   -1.90368183e+00    1.34310369e+00       -0.34371532      0.01074542     -0.51657779  
H      1.07497561     -0.05193540      1.42639339     -1.45099775e+01   -7.66327235e+00    2.46371966e+00       -0.45190544      0.02062057     -0.62973528  
H      0.99568508     -0.07246724      1.36820571     -4.62090454e+00   -4.76796094e+00   -2.73468254e+00       -0.52491485      0.03145256     -0.72917765  
H      1.06880499      0.02059400      1.38089209     -9.82025333e+00    4.91035618e-02    8.32322986e+00       -0.36725668      0.02545709     -0.44436017  
H      1.02143539      0.03758522      1.41766483      7.39868586e+00   -5.82488273e+00    8.46795890e+00       -0.38968051     -0.00965312     -0.50628061  
H      0.96966451      0.08141475      1.38386535      1.50017461e+00   -6.32512621e-01    7.55985984e+00       -0.34032096     -0.02359325     -0.45922463  
H      1.05300956      0.04745160      1.43475814     -6.75248677e+00   -9.27693349e+00    8.86114149e+00       -0.25935433     -0.02171704     -0.34637819  
H      1.10263279      0.02698627      1.56567489     -4.99004320e+00   -1.23591239e+00   -9.17468898e+00       -0.19974468     -0.00970227     -0.26552775  
H      1.02860014      0.12998787      1.64825613      7.18904374e+00    4.44416931e+00   -2.85236447e+00       -0.16830876     -0.01347735     -0.27798726  
H      1.07411676      0.31609011      1.77072528      3.37606213e+00    8.28926502e-01   -3.39186458e-01       -0.08679736     -0.02115070     -0.14526997  
H      1.04461793      0.26529200      1.72050256     -4.70986072e-02    8.05795696e+00   -4.63254797e+00       -0.15761097     -0.04033621     -0.24754871  
H      1.03246796      0.28594582      1.66689344      7.51320748e+00    1.60226225e+01    3.22456598e+00       -0.20590660     -0.05075099     -0.29502137  
H      1.05935046      0.27987169      1.60590214      1.39969082e+01   -4.29007979e+00   -8.01156757e-01       -0.25435479     -0.06473669     -0.34630400  
H      0.96991674      0.30637240      1.62883452      7.50667053e+00    6.89971013e+00   -7.08263264e+00       -0.28662325     -0.09743908     -0.44168385  
H      0.99689676      0.25495454      1.58879685      1.92574737e+00   -6.90900452e+00    4.13401706e+00       -0.40792174     -0.09657003     -0.59115908  
H      0.91750598      0.38336206      1.56466290     -4.54056984e+00    1.18798656e+01    1.66004972e+00       -0.62024157     -0.18877405     -0.91863068  
H      0.93567712      0.29252007      1.56034487      7.99068005e+00    5.40222140e+00   -8.47093490e+00       -0.64966274     -0.18824385     -1.04772991  
H      0.90427208      0.15375801      1.57290826     -6.62998892e+00    8.53007896e+00    1.65123123e+00       -0.49151945     -0.07754950     -0.84547254  
H      0.94951271      0.20641230      1.57373025     -9.20558927e+00   -9.23834179e+00   -2.58847451e+00       -0.41720787     -0.05119626     -0.69912678  
H      0.95353556      0.23343413      1.54341747     -8.07083170e+00   -2.96794276e+00   -8.80551568e+00       -0.44768983     -0.09379703     -0.85900400  
H      1.03726054      0.20651693      1.59782500      1.02047392e+01    9.38953992e+00   -2.86069241e+00       -0.30914327     -0.06156462     -0.48301698  
H      1.02103006      0.08760522      1.60983873      2.38487134e+01    2.50205404e+00   -4.89451455e+00       -0.38747745     -0.06688015     -0.64381001  
H      1.01632264      0.10282871      1.72100841      4.54948169e+00   -8.97944195e-01   -1.95681262e+01       -0.23257412     -0.03890637     -0.38265206  
H      1.10217660      0.07624044      1.72949741      9.34303073e+00    9.87326709e+00    1.33981042e+00       -0.12775987     -0.01234815     -0.17074294  
