3
100000  xi=   0.75768202  Mean pot=  -107.21429247  Cent pot=  -108.49810734 kcal/mol
H     -0.04885899      0.76583887     -1.51744702       0.20909122
H     -0.55754662      0.47674935     -1.14308899       0.22534373
H      0.60640560     -1.24258822      2.66053601       0.19081694
3
200000  xi=   0.75441305  Mean pot=  -106.07548178  Cent pot=  -106.40038275 kcal/mol
H     -0.49574714      0.64756103     -1.45660792       0.18897752
H     -0.06089092      0.15399477     -1.37921612       0.17328105
H      0.55663806     -0.80155580      2.83582404       0.23678851
3
300000  xi=   0.74832679  Mean pot=  -107.83745207  Cent pot=  -109.17104912 kcal/mol
H      1.08122138      0.67720133      0.68366359       0.20618450
H      1.34311685      0.11682010      1.03991930       0.19169001
H     -2.42433823     -0.79402144     -1.72358289       0.15303861
3
400000  xi=   0.74739058  Mean pot=  -108.13712549  Cent pot=  -109.37804018 kcal/mol
H      0.21608134     -1.02845282     -1.03683580       0.14119264
H     -0.46335475     -1.27473372     -0.99297531       0.16906459
H      0.24727341      2.30318654      2.02981111       0.18856915
3
500000  xi=   0.75292315  Mean pot=  -106.82622670  Cent pot=  -109.49721677 kcal/mol
H      0.66466400      0.25598059      1.51480572       0.20310238
H      0.69085365      0.77877764      0.99814729       0.14090088
H     -1.35551765     -1.03475823     -2.51295301       0.22987727
3
600000  xi=   0.74721690  Mean pot=  -104.75178106  Cent pot=  -107.32259218 kcal/mol
H     -1.20855563     -0.96874621      0.71966455       0.12060127
H     -0.82769752     -0.51707921      1.04450131       0.24023554
H      2.03625315      1.48582542     -1.76416586       0.21239591
3
700000  xi=   0.75066815  Mean pot=  -105.63391641  Cent pot=  -109.51161710 kcal/mol
H      1.16701553      1.28943346      0.47962696       0.20955134
H      0.75466985      0.78293017      0.83287038       0.18139098
H     -1.92168538     -2.07236363     -1.31249734       0.20576174
3
800000  xi=   0.75330070  Mean pot=  -106.21922230  Cent pot=  -108.87869734 kcal/mol
H     -0.45136588      1.47796819     -0.64066099       0.17178092
H     -0.16733627      0.93103436     -1.12281861       0.19838156
H      0.61870215     -2.40900254      1.76347960       0.24313569
3
900000  xi=   0.74620862  Mean pot=  -105.85984463  Cent pot=  -108.89726477 kcal/mol
H      1.48831139      0.44238012     -0.50752365       0.11685944
H      0.99962607      0.49472603     -1.01248914       0.16143776
H     -2.48793746     -0.93710615      1.52001279       0.21815184
3
1000000  xi=   0.75097043  Mean pot=  -107.72171374  Cent pot=  -109.03541866 kcal/mol
H     -0.28673612     -0.66773957      1.06845787       0.18307150
H     -0.78852055     -1.12919802      1.26290410       0.16698739
H      1.07525667      1.79693759     -2.33136197       0.20639004
3
1100000  xi=   0.74938945  Mean pot=  -108.62327180  Cent pot=  -109.44290778 kcal/mol
H     -0.93340056     -0.52785424     -0.97056201       0.15334379
H     -1.30259347     -0.96763103     -0.52157214       0.14281202
H      2.23599404      1.49548527      1.49213415       0.26403008
3
1200000  xi=   0.74548250  Mean pot=  -107.33634795  Cent pot=  -109.48044973 kcal/mol
H      1.59104676     -0.80558164     -0.15870142       0.21615028
H      1.24759853     -0.53376762      0.45038285       0.14249850
H     -2.83864529      1.33934925     -0.29168144       0.20251664
3
1300000  xi=   0.74990986  Mean pot=  -106.41923421  Cent pot=  -107.63438606 kcal/mol
H     -0.25723380      1.17168367     -0.75378015       0.20805308
H      0.35544546      1.46225945     -0.78600242       0.16860544
H     -0.09821166     -2.63394312      1.53978257       0.15570186
3
1400000  xi=   0.75745592  Mean pot=  -105.11045079  Cent pot=  -109.51407204 kcal/mol
H     -0.51773237      0.22225059      1.63575789       0.12333252
H     -0.16095784      0.68181859      1.17478300       0.22160882
H      0.67869022     -0.90406918     -2.81054089       0.21770760
3
1500000  xi=   0.74516278  Mean pot=  -104.76928273  Cent pot=  -109.50816602 kcal/mol
H     -0.07303174      0.13478409     -1.88791246       0.19861409
H     -0.40029420      0.31789602     -1.24541767       0.17601452
H      0.47332594     -0.45268012      3.13333013       0.16650049
3
1600000  xi=   0.75276563  Mean pot=  -105.59113110  Cent pot=  -109.26260131 kcal/mol
H      1.25796844     -0.40157576      0.71059821       0.19094877
H      1.60809465     -0.16436205      0.07085282       0.18922730
H     -2.86606310      0.56593781     -0.78145103       0.20561382
3
1700000  xi=   0.74684792  Mean pot=  -106.46396399  Cent pot=  -109.47653420 kcal/mol
H      1.00701422      0.70126991      0.74656322       0.21237629
H      0.83421684      0.54188367      1.45963419       0.15197751
H     -1.84123106     -1.24315358     -2.20619742       0.23197955
3
1800000  xi=   0.75418416  Mean pot=  -107.15046526  Cent pot=  -106.58390675 kcal/mol
H     -0.88722037     -0.11373267      1.17767490       0.20520566
H     -0.33895568      0.07907165      1.49984677       0.17608539
H      1.22617605      0.03466102     -2.67752167       0.21747005
3
1900000  xi=   0.75276455  Mean pot=  -106.33343842  Cent pot=  -109.27492186 kcal/mol
H      0.53808309     -1.80441205     -0.01913775       0.19630035
H     -0.03938115     -1.30088285     -0.02702367       0.15155093
H     -0.49870193      3.10529491      0.04616142       0.21957260
3
2000000  xi=   0.75125645  Mean pot=  -104.09065578  Cent pot=  -108.05375822 kcal/mol
H      1.42329042     -0.83883228      0.02020872       0.19725938
H      1.25547466     -0.44179818      0.55368144       0.23929535
H     -2.67876508      1.28063046     -0.57389016       0.21754625
