3
100000  xi=   0.79468832  Mean pot=  -104.98186904  Cent pot=  -109.35376349 kcal/mol
H     -0.44070052      0.36643823     -1.62036622       0.20570795
H     -0.51575689      0.33457843     -0.86203753       0.17155922
H      0.95645740     -0.70101666      2.48240375       0.19076053
3
200000  xi=   0.80381988  Mean pot=  -106.97322706  Cent pot=  -109.17057194 kcal/mol
H      0.72258791      0.00760696      0.91296677       0.21332170
H      0.76602453      0.71380786      1.00005055       0.20077535
H     -1.48861244     -0.72141482     -1.91301732       0.18072061
3
300000  xi=   0.79987791  Mean pot=  -106.03033191  Cent pot=  -109.47238256 kcal/mol
H      0.12921149      0.79017391     -1.17812383       0.19852732
H     -0.41980639      0.27535487     -1.13344484       0.17642369
H      0.29059490     -1.06552878      2.31156867       0.17881820
3
400000  xi=   0.80077789  Mean pot=  -105.82152122  Cent pot=  -109.34706589 kcal/mol
H      1.12702010      0.78011324     -0.40735335       0.27112036
H      1.01038763      0.59826873      0.28035113       0.20600169
H     -2.13740773     -1.37838196      0.12700222       0.18031324
3
500000  xi=   0.80102224  Mean pot=  -107.41242765  Cent pot=  -109.48516648 kcal/mol
H     -0.42274686      1.11502566     -0.94278988       0.15134686
H      0.22606913      0.87145758     -0.71035599       0.18406648
H      0.19667773     -1.98648323      1.65314588       0.22804746
3
600000  xi=   0.80202700  Mean pot=  -107.02364904  Cent pot=  -109.30324464 kcal/mol
H     -0.88470993     -1.14678624      0.67611047       0.12730193
H     -0.85389952     -0.47311255      0.42782629       0.18645003
H      1.73860946      1.61989879     -1.10393676       0.15894716
3
700000  xi=   0.81245753  Mean pot=  -107.34863876  Cent pot=  -109.49484002 kcal/mol
H      0.40617406      1.12545489     -0.79786002       0.13607262
H      0.57242911      0.96613181     -0.08197105       0.15805569
H     -0.97860317     -2.09158670      0.87983108       0.20588664
3
800000  xi=   0.79744192  Mean pot=  -106.53121649  Cent pot=  -109.40972281 kcal/mol
H     -0.37655649     -1.01939086     -1.25959242       0.18672223
H     -0.49938727     -0.78639176     -0.54767822       0.14553352
H      0.87594376      1.80578263      1.80727064       0.18230507
3
900000  xi=   0.79677559  Mean pot=  -107.15613516  Cent pot=  -108.61247343 kcal/mol
H     -1.36118333     -0.00620588      0.17963344       0.21645585
H     -1.03669363      0.52717837      0.48890223       0.16813691
H      2.39787696     -0.52097249     -0.66853567       0.19568144
3
1000000  xi=   0.79550678  Mean pot=  -106.83975068  Cent pot=  -108.83701609 kcal/mol
H      1.33176287      0.48420805      0.82284246       0.16842335
H      0.95483640      0.44549419      0.23135607       0.19652565
H     -2.28659928     -0.92970225     -1.05419853       0.17130781
3
1100000  xi=   0.80236394  Mean pot=  -106.65830694  Cent pot=  -109.20704891 kcal/mol
H      0.41122770      0.91114786      0.78328216       0.19498600
H      0.71830004      0.32030335      1.04156115       0.17848505
H     -1.12952774     -1.23145121     -1.82484331       0.16386850
3
1200000  xi=   0.79143002  Mean pot=  -104.29942678  Cent pot=  -109.32559563 kcal/mol
H     -1.23151179      0.54802805      0.63131757       0.16720143
H     -0.69766810      1.00859992      0.33616951       0.15476098
H      1.92917988     -1.55662797     -0.96748708       0.12988850
3
1300000  xi=   0.80467150  Mean pot=  -107.11389477  Cent pot=  -109.53225518 kcal/mol
H     -0.23659257      0.33863067      0.98126214       0.12904782
H     -0.73189883     -0.00737116      1.41576457       0.16991383
H      0.96849140     -0.33125950     -2.39702670       0.28962546
3
1400000  xi=   0.80802836  Mean pot=  -106.82597146  Cent pot=  -108.65828841 kcal/mol
H      0.44049503      0.60205874      1.15042360       0.18545564
H     -0.19223323      0.31019428      1.11476257       0.22145676
H     -0.24826180     -0.91225301     -2.26518617       0.17950622
3
1500000  xi=   0.80170037  Mean pot=  -104.57212727  Cent pot=  -108.54559656 kcal/mol
H      0.29261485      0.96586721      0.51254570       0.19178214
H     -0.20485864      1.12433641      0.97163038       0.18102239
H     -0.08775621     -2.09020362     -1.48417608       0.20668769
3
1600000  xi=   0.79208675  Mean pot=  -106.34777225  Cent pot=  -109.46447532 kcal/mol
H      0.56766588      0.32693991     -0.94663753       0.23004967
H      0.77217688      1.02649963     -0.97358462       0.20844269
H     -1.33984275     -1.35343954      1.92022215       0.17843297
3
1700000  xi=   0.80983619  Mean pot=  -105.07952242  Cent pot=  -109.46901308 kcal/mol
H     -0.59612202     -1.04738817     -0.52028659       0.14122923
H     -0.00615420     -0.81164544     -0.92776256       0.18674491
H      0.60227621      1.85903362      1.44804915       0.15595426
3
1800000  xi=   0.79363123  Mean pot=  -105.48727950  Cent pot=  -109.52869822 kcal/mol
H      0.36533443     -0.13210989      1.31519358       0.18776256
H      0.87820104     -0.44427986      0.87488778       0.19792887
H     -1.24353547      0.57638975     -2.19008137       0.16224501
3
1900000  xi=   0.80392417  Mean pot=  -107.56047340  Cent pot=  -109.42177067 kcal/mol
H     -1.19805829      0.19982595     -0.04141850       0.14615514
H     -1.24056923     -0.36697508     -0.49194368       0.21440862
H      2.43862752      0.16714913      0.53336218       0.18379290
3
2000000  xi=   0.79778502  Mean pot=  -107.02100913  Cent pot=  -109.38157291 kcal/mol
H      1.16081077      0.28021226     -0.18725363       0.16516491
H      1.04617592      0.63087015     -0.80895227       0.20542500
H     -2.20698669     -0.91108241      0.99620590       0.17154962
