3
100000  xi=   0.39658591  Mean pot=  -104.91111480  Cent pot=  -109.26498057 kcal/mol
H      0.30145124      3.01793301     -1.33211438       0.22515695
H      0.78854368      2.66906850     -1.80931780       0.21143448
H     -1.08999492     -5.68700151      3.14143218       0.19078760
3
200000  xi=   0.40197279  Mean pot=  -107.53839167  Cent pot=  -108.88649639 kcal/mol
H     -0.18712651     -3.28898707     -1.28597152       0.17291015
H      0.28458938     -2.90737644     -0.92747209       0.16654739
H     -0.09746288      6.19636351      2.21344361       0.20605485
3
300000  xi=   0.39601735  Mean pot=  -107.88262854  Cent pot=  -109.47358655 kcal/mol
H      2.63737461      0.53275370     -1.39726365       0.19475852
H      3.35742270      0.39286246     -1.36926596       0.17509592
H     -5.99479732     -0.92561616      2.76652962       0.19000165
3
400000  xi=   0.39980185  Mean pot=  -106.01612875  Cent pot=  -109.46403229 kcal/mol
H      2.31134174      1.41728158      2.28536627       0.19341652
H      1.83049282      0.86620523      2.32928932       0.16437476
H     -4.14183456     -2.28348681     -4.61465559       0.22701397
3
500000  xi=   0.38417304  Mean pot=  -106.06403324  Cent pot=  -108.97167520 kcal/mol
H     -1.36766410     -2.58009363     -1.42576815       0.17371107
H     -1.59055414     -2.36050062     -2.06010956       0.15547622
H      2.95821824      4.94059425      3.48587771       0.23936372
3
600000  xi=   0.40572703  Mean pot=  -107.72467903  Cent pot=  -109.46346891 kcal/mol
H      1.05981274      1.87449665      2.80378953       0.18033983
H      0.59837486      1.29249083      2.69390169       0.14084738
H     -1.65818760     -3.16698749     -5.49769122       0.15785237
3
700000  xi=   0.40691459  Mean pot=  -105.06512174  Cent pot=  -109.08589125 kcal/mol
H     -2.09595157      0.35326453      2.03667053       0.17585293
H     -2.70479481      0.72746301      2.33463495       0.19197269
H      4.80074638     -1.08072753     -4.37130549       0.21510705
3
800000  xi=   0.39803484  Mean pot=  -107.41159104  Cent pot=  -109.45271604 kcal/mol
H      1.69193174      2.45305632      2.11599482       0.18704731
H      1.36837323      2.21020175      1.50677498       0.19113422
H     -3.06030497     -4.66325807     -3.62276980       0.25177541
3
900000  xi=   0.39030384  Mean pot=  -107.50831957  Cent pot=  -108.85237243 kcal/mol
H      2.67235783     -0.59131926      1.90540667       0.18251422
H      3.00287606     -0.67389369      1.28958874       0.26347444
H     -5.67523389      1.26521295     -3.19499541       0.18048254
3
1000000  xi=   0.39725450  Mean pot=  -107.43374624  Cent pot=  -109.47724020 kcal/mol
H     -2.09643679     -1.36573275     -1.66897708       0.14624899
H     -2.79924507     -1.54866038     -1.77982947       0.21586426
H      4.89568186      2.91439313      3.44880656       0.19165240
3
1100000  xi=   0.40038913  Mean pot=  -107.86229494  Cent pot=  -109.48799820 kcal/mol
H     -1.29890586     -2.10736137     -2.12464908       0.23088632
H     -1.53708611     -1.52844026     -2.53135161       0.15295382
H      2.83599197      3.63580163      4.65600069       0.17488732
3
1200000  xi=   0.40216221  Mean pot=  -108.13698704  Cent pot=  -108.11222738 kcal/mol
H      0.66705882     -2.49297055      1.86545978       0.19623412
H      0.16348423     -2.92758749      1.69296947       0.21611648
H     -0.83054305      5.42055804     -3.55842925       0.20808400
3
1300000  xi=   0.40389552  Mean pot=  -106.93044160  Cent pot=  -108.87308757 kcal/mol
H      2.82937520     -1.02869113      0.33895017       0.14526014
H      3.30250318     -1.31475439     -0.09744175       0.15194605
H     -6.13187838      2.34344552     -0.24150842       0.17167112
3
1400000  xi=   0.39975877  Mean pot=  -105.80053755  Cent pot=  -107.56412215 kcal/mol
H      1.07000325      2.40459060      1.69601302       0.15625134
H      1.20275308      2.96819270      1.34329839       0.25672722
H     -2.27275633     -5.37278330     -3.03931141       0.22495131
3
1500000  xi=   0.40106630  Mean pot=  -107.00532736  Cent pot=  -109.42846152 kcal/mol
H      1.04557047      2.94499159     -0.46803453       0.12540881
H      0.53713899      3.40962142     -0.15939337       0.18656943
H     -1.58270946     -6.35461301      0.62742790       0.19981714
3
1600000  xi=   0.40027574  Mean pot=  -107.31781293  Cent pot=  -108.61005596 kcal/mol
H     -1.57684044      2.60626201     -1.00163175       0.16610787
H     -2.09519206      2.60245413     -0.53487887       0.15786593
H      3.67203250     -5.20871614      1.53651062       0.16301255
3
1700000  xi=   0.40426414  Mean pot=  -104.92279754  Cent pot=  -108.54836439 kcal/mol
H      0.07183196      2.15875423      2.14396860       0.16757688
H     -0.44553631      2.75192570      2.23300005       0.16028056
H      0.37370435     -4.91067993     -4.37696865       0.21018452
3
1800000  xi=   0.39082051  Mean pot=  -106.39960767  Cent pot=  -109.47445722 kcal/mol
H     -0.73387039     -2.63296957     -1.57698825       0.18334108
H     -1.40804092     -2.67168061     -1.90146654       0.13691472
H      2.14191131      5.30465018      3.47845479       0.20013669
3
1900000  xi=   0.40101082  Mean pot=  -106.28593379  Cent pot=  -108.94698739 kcal/mol
H      2.07574206     -2.10402615      2.23621743       0.12929785
H      1.52456296     -1.70428297      1.85652849       0.19359806
H     -3.60030502      3.80830912     -4.09274592       0.21165600
3
2000000  xi=   0.40755795  Mean pot=  -106.65044833  Cent pot=  -109.23387124 kcal/mol
H      2.18222005     -1.20646307     -1.60295912       0.19729095
H      2.33705313     -1.66738909     -2.19688287       0.17038875
H     -4.51927318      2.87385217      3.79984199       0.18313128
