3
100000  xi=   0.86765755  Mean pot=  -106.66629101  Cent pot=  -108.28995743 kcal/mol
H     -0.63108742      0.10601009     -0.50804634       0.22155022
H     -0.41285567     -0.22627471     -1.07418151       0.20665962
H      1.04394310      0.12026462      1.58222786       0.18674466
3
200000  xi=   0.87530730  Mean pot=  -106.34978826  Cent pot=  -109.34400999 kcal/mol
H     -0.09360536      0.14946980     -0.78166117       0.16546869
H     -0.23464842      0.86620436     -0.72267491       0.18272920
H      0.32825379     -1.01567416      1.50433608       0.16554580
3
300000  xi=   0.87385700  Mean pot=  -106.25291611  Cent pot=  -109.46401997 kcal/mol
H     -0.27900090     -0.52830068      0.21661516       0.19762920
H     -0.58957415     -1.20918745      0.17640960       0.15306439
H      0.86857505      1.73748813     -0.39302475       0.20173879
3
400000  xi=   0.86715765  Mean pot=  -106.91335674  Cent pot=  -108.10316107 kcal/mol
H      0.32534523     -0.58605092      0.48601325       0.14955621
H      0.70680264     -0.92040024      0.02097336       0.15543949
H     -1.03214788      1.50645116     -0.50698661       0.16975875
3
500000  xi=   0.86734310  Mean pot=  -106.10251961  Cent pot=  -108.69674613 kcal/mol
H      0.18143644      0.46876454     -0.47869511       0.23112262
H     -0.06409349      0.82121527     -1.03129044       0.19690497
H     -0.11734295     -1.28997981      1.50998556       0.18717489
3
600000  xi=   0.87268995  Mean pot=  -104.81273064  Cent pot=  -108.05357355 kcal/mol
H     -0.50281114      0.85826807      0.42782468       0.22273618
H     -0.33437378      0.19223163      0.84000736       0.13639282
H      0.83718492     -1.05049970     -1.26783203       0.23139113
3
700000  xi=   0.86478966  Mean pot=  -105.93918290  Cent pot=  -109.00180621 kcal/mol
H     -1.28381397     -0.11517835     -0.12256043       0.17180461
H     -0.62890404     -0.12222592     -0.39245299       0.17842653
H      1.91271802      0.23740426      0.51501343       0.18683481
3
800000  xi=   0.87693907  Mean pot=  -104.82278220  Cent pot=  -107.88267685 kcal/mol
H     -0.51891825     -0.16430939      1.00001908       0.19267554
H     -0.66866368      0.03116404      0.35990599       0.20560427
H      1.18758194      0.13314536     -1.35992507       0.22256147
3
900000  xi=   0.87016494  Mean pot=  -105.81328051  Cent pot=  -109.25844726 kcal/mol
H      0.78294751      0.09744922      0.04063597       0.15317613
H      1.08695223     -0.58194717      0.21678200       0.19226218
H     -1.86989974      0.48449794     -0.25741797       0.19556110
3
1000000  xi=   0.87363286  Mean pot=  -106.98994573  Cent pot=  -108.13129980 kcal/mol
H      0.24834048      0.58366110     -0.79526316       0.15950925
H      0.62085864      0.02752211     -0.62112673       0.21138239
H     -0.86919911     -0.61118321      1.41638989       0.17054544
3
1100000  xi=   0.86541521  Mean pot=  -107.26791181  Cent pot=  -109.49670769 kcal/mol
H      0.02415114      1.05860199     -0.74821441       0.18315626
H     -0.04063056      0.76640422     -0.07217424       0.20056011
H      0.01647942     -1.82500621      0.82038865       0.24456573
3
1200000  xi=   0.86811173  Mean pot=  -106.35680075  Cent pot=  -109.31840194 kcal/mol
H     -0.09578878      0.03394732     -0.91643128       0.18215631
H     -0.67428531     -0.36969544     -0.72879589       0.16808670
H      0.77007409      0.33574812      1.64522717       0.18634781
3
1300000  xi=   0.87387563  Mean pot=  -106.46530383  Cent pot=  -109.21424695 kcal/mol
H      0.49172051      0.79206413     -0.11842179       0.16816758
H      0.00239180      0.70871927     -0.68444945       0.18402442
H     -0.49411230     -1.50078340      0.80287124       0.18651237
3
1400000  xi=   0.87645875  Mean pot=  -107.31106061  Cent pot=  -108.57120962 kcal/mol
H     -0.65967585     -0.17496806      0.47027926       0.17900201
H     -0.81352604     -0.69422683      0.02386667       0.21512533
H      1.47320188      0.86919488     -0.49414592       0.15503671
3
1500000  xi=   0.87259179  Mean pot=  -106.45923758  Cent pot=  -109.44936526 kcal/mol
H     -0.36648087     -0.32525087     -0.47187692       0.21740089
H     -0.41507932     -1.02687909     -0.73588523       0.24832028
H      0.78156019      1.35212996      1.20776215       0.16606710
3
1600000  xi=   0.86834997  Mean pot=  -101.04500956  Cent pot=  -109.44824635 kcal/mol
H      0.53561205     -0.97701217     -0.67909492       0.31443253
H      0.13594498     -0.36756895     -0.61434628       0.22028736
H     -0.67155704      1.34458112      1.29344121       0.20575805
3
1700000  xi=   0.86656409  Mean pot=  -107.10937994  Cent pot=  -108.77059672 kcal/mol
H      0.40467452     -0.48080385      0.37447093       0.17181859
H      0.97183635     -0.36183258      0.77042566       0.21290043
H     -1.37651087      0.84263644     -1.14489658       0.21401399
3
1800000  xi=   0.88443829  Mean pot=  -107.75978644  Cent pot=  -108.85755906 kcal/mol
H     -0.15531442      0.73684380     -0.24332368       0.18646866
H     -0.49393288      0.84296642      0.37886118       0.18568388
H      0.64924729     -1.57981022     -0.13553750       0.19574331
3
1900000  xi=   0.87298560  Mean pot=  -106.97038101  Cent pot=  -109.22418894 kcal/mol
H      0.36055937      0.59039638      0.61998472       0.17309318
H     -0.34686773      0.82146976      0.49089959       0.16041069
H     -0.01369165     -1.41186613     -1.11088431       0.17166530
3
2000000  xi=   0.87756037  Mean pot=  -106.57535253  Cent pot=  -109.26978412 kcal/mol
H     -0.29183340     -0.14505337      0.75228855       0.14941232
H     -0.85587412      0.34441417      0.64595658       0.15242213
H      1.14770752     -0.19936080     -1.39824513       0.20367023
