96
100000  xi=   0.16090791  Mean pot=  -106.50662565  Cent pot=  -109.48523672 kcal/mol
H     -1.43636903      4.15177628      0.85939715     -2.27531446e+00    1.12599096e+00   -7.53455296e+00       -5.36157134    -24.02700352     35.11105166  
H     -1.52724987      4.06709816      0.80468063     -8.35272453e+00   -3.24373771e+00    7.01814452e+00       -3.37809749     16.35273281    -37.10287146  
H     -1.44552108      3.99579394      0.84480544     -1.46011336e+01   -7.77453268e-01    7.73306302e-01        1.37269592     -4.21611860     19.34131029  
H     -1.39933901      3.98909223      0.80403521     -2.66188891e+00   -9.06225720e-02   -2.97175486e+00       10.88413155      9.64169135    -58.45631165  
H     -1.29618233      4.03176505      0.84144961      1.90927529e+01    3.94179527e+00    7.84715673e+00       18.73200808     17.11652238    -51.43624732  
H     -1.26721410      4.20254368      0.80314034      2.52545834e+00    1.56560793e+01    1.46804669e+01       41.87899176     29.91749993    -73.36324699  
H     -1.30298776      4.35871559      0.79143983     -6.36689337e+00   -1.14276459e+01    6.54293013e-01       23.20554447     27.86487878    -41.69001809  
H     -1.28971784      4.25855980      0.85940273      5.30647332e+00   -5.78619827e+00   -4.48324836e+00        3.90667695      2.76371326     -5.00543482  
H     -1.35680959      4.23412686      0.97377952     -4.42787556e+00   -5.40906553e+00   -6.50481805e+00      -91.26110629   -111.07167861    106.48731062  
H     -1.57610684      4.35879451      1.01533900     -8.69400024e+00   -4.72779681e+00   -2.53964146e+00      -24.31925204    -76.31343877     51.65651231  
H     -1.54706350      4.32280448      0.94968714      3.85040186e+00    3.87780698e+00    1.81031153e+00       -6.62017879    -15.29309407     11.81508522  
H     -1.60204921      4.43946872      0.94258491      2.38302211e+00    3.75439999e+00    5.67271255e+00       14.76400096     42.60638215    -27.67896427  
H     -1.67000718      4.31893152      0.98143265      3.58353469e+00    7.44948335e-01   -1.64680602e+01        1.76931420      3.71158618     -3.49876787  
H     -1.73705541      4.28851292      0.81821242     -1.05247191e+01   -9.65195323e+00   -7.61867142e+00       16.67240805     39.75507396    -54.74966690  
H     -1.65057804      4.29988542      0.88972667     -1.06124283e+01    1.05384075e+01   -9.82636104e-01       39.55475007     49.52184006    -59.25521763  
H     -1.60072130      4.21068632      0.89225370      7.24260367e-02   -2.65107747e+00    7.10478646e+00       33.29905299     37.36141337    -65.17270017  
H     -1.68983449      4.29095185      0.92431521     -1.00373853e+01   -1.31811910e+01    1.33223683e+00       -1.48897460     -5.93267077      8.57789252  
H     -1.78022980      4.16848092      0.91017928      4.46979718e+00    4.08786327e+00   -1.40270548e+00       -0.12538825     -4.96892369     15.62805746  
H     -1.71783868      4.10639022      0.95654398      1.40962078e+00   -6.90946627e+00    4.60169507e+00       -0.40621230     -2.80613081      7.68103645  
H     -1.75793423      4.07281368      0.95210747     -7.71709698e+00    2.60549132e+00   -9.30517958e+00        0.06574330      0.97168842     -2.72695153  
H     -1.69514004      4.03461631      0.99710937     -3.46340208e+00   -1.18029576e+00    1.76797942e+00      -11.48707552    -13.94627367     46.75628174  
H     -1.65701958      4.05403503      0.95025477      1.71453989e+00    7.04871317e+00    3.19489821e+00        9.65295176     17.21326073    -41.48255278  
H     -1.49423233      4.13032367      0.92336629      1.23600997e+00    1.15954941e+01   -5.59090287e+00       28.44939267     36.00007146    -72.99330182  
H     -1.46602538      4.06428165      0.93500956     -1.50953551e+00    9.65343196e+00   -4.11978217e+00       23.81145933     15.00667850    -72.40513066  
H     -1.34221069      4.01467173      1.01183655      2.55023614e+00    1.68464991e+01    3.12319389e+00       11.83362245      3.12217921    -21.49637053  
H     -1.32345171      4.06761422      0.86513532      1.56528156e+01    5.78928602e+00   -4.14283555e+00       14.34280822      8.01773714    -30.93430388  
H     -1.32663319      4.25051691      0.93437402      2.32028981e+00   -9.33902327e-01   -7.47215975e+00        7.69646359      5.90784650    -10.92061301  
H     -1.45552406      4.20471542      0.97726817      3.30428029e+00   -2.37320060e+00    8.51839205e-01      -20.73975562    -64.25206105     94.75049989  
H     -1.48868550      4.12088312      0.92025852      6.19419067e+00    1.15483616e+01    7.67386086e+00      -18.98221309    -56.91864583    116.71527420  
H     -1.48309639      4.04223892      0.87357723      3.61815202e+00    2.79944849e+00   -7.86650964e+00        0.31906087      8.42231541    -22.66731903  
H     -1.48405477      4.06029022      0.89494553      5.49352693e+00   -2.23038670e+00   -1.87816612e+00        7.26506566     13.69268272    -33.73065412  
H     -1.46952137      4.04981052      0.79708453      3.68623976e+00   -5.30291023e+00   -4.90893575e+00        9.30825450     17.44479779    -42.10339782  
H     -1.52351544      3.76124388      1.43008847      8.11462447e+00   -3.89136518e-01   -2.41179919e+00        5.36157003     24.02700681    -35.11105074  
H     -1.46076109      3.74523848      1.53495121     -1.22486006e+01   -1.40703523e+00   -9.11228903e-01        3.37809617    -16.35272956     37.10287239  
H     -1.39575700      3.84294783      1.54598183      1.16617168e-02   -1.89163277e+00   -7.88264523e+00       -1.37269718      4.21612179    -19.34130935  
H     -1.55119411      3.85457166      1.61961598      4.44011254e+00    4.25557653e+00   -1.02418030e+01      -10.88413278     -9.64168816     58.45631262  
H     -1.56852685      3.78290810      1.58928079     -2.13299384e+01    3.68988275e+00    1.00162086e+01      -18.73200933    -17.11651915     51.43624830  
H     -1.70389551      3.89058738      1.56811497     -4.15936948e+00   -4.27891490e+00   -3.85526087e-01      -41.87899294    -29.91749694     73.36324789  
H     -1.65126864      3.94050503      1.41714530      1.28697108e+01    5.61828652e+00    3.10419047e+00      -23.20554565    -27.86487582     41.69001898  
H     -1.71295176      3.95915024      1.40167169     -1.38129662e+00   -4.34251641e+00   -3.07004385e+00       -3.90667805     -2.76371050      5.00543563  
H     -1.66627917      3.85747893      1.33488169     -9.24161664e+00    3.91068204e+00   -2.84608057e+00       91.26110516    111.07168146   -106.48730975  
H     -1.74340771      3.83380693      1.37070271      8.13029265e+00    3.64675098e+00   -4.10709401e+00       24.31925097     76.31344145    -51.65651147  
H     -1.77999370      3.78471871      1.36539952     -2.71116986e+00   -4.31636175e+00    3.87378072e+00        6.62017771     15.29309681    -11.81508436  
H     -1.83206842      3.77567264      1.37381582     -5.76506627e+00    4.01961152e+00    1.07929296e+01      -14.76400208    -42.60637943     27.67896513  
H     -1.91523475      3.80450470      1.46636302      1.04584546e+00   -5.29566064e+00   -6.04906743e+00       -1.76931534     -3.71158342      3.49876875  
H     -1.94383813      3.79544305      1.49725561     -1.22705324e+00    4.12406960e+00   -1.15545750e+01      -16.67240922    -39.75507111     54.74966781  
H     -2.07080736      3.77376583      1.51925359     -9.03537734e+00    1.85509704e+01    3.37398541e+00      -39.55475123    -49.52183731     59.25521850  
H     -1.96694770      3.79978169      1.60902974      4.90688038e+00    4.83981542e+00    1.41650372e+01      -33.29905417    -37.36141055     65.17270104  
H     -1.79292274      3.88020673      1.51820060      2.80036808e+00   -3.45686982e+00   -3.29649466e+00        1.48897338      5.93267375     -8.57789162  
H     -1.78575779      3.94941492      1.59917653     -1.31614648e+01   -1.66456828e+00    6.09327426e+00        0.12538686      4.96892695    -15.62805649  
H     -1.75415765      3.85549682      1.64329746     -7.66910372e+00   -7.61069226e+00   -2.92921615e+00        0.40621092      2.80613412     -7.68103544  
H     -1.77485271      3.82276109      1.65385772     -7.46925484e+00   -7.38243829e+00    1.02271820e+01       -0.06574471     -0.97168509      2.72695257  
H     -1.85339602      3.84248024      1.64126473      1.85329773e+00   -3.75056131e+00   -7.11329949e+00       11.48707413     13.94627695    -46.75628070  
H     -1.82732278      3.75034835      1.68211495     -2.29573611e+00   -4.96471637e-01    6.91147238e+00       -9.65295321    -17.21325726     41.48255388  
H     -1.79764276      3.74638590      1.70183384      7.27034299e+00   -4.77015640e+00   -9.61206502e+00      -28.44939404    -36.00006811     72.99330288  
H     -1.73827696      3.89270076      1.76286354      7.18421687e+00    1.15575184e+01    5.30103144e+00      -23.81146075    -15.00667494     72.40513180  
H     -1.71287805      3.91687503      1.68517244     -2.47342641e+00   -7.93590473e+00   -7.79738092e+00      -11.83362381     -3.12217573     21.49637164  
H     -1.64737380      3.88653940      1.56376448     -2.05173846e+00   -9.74092229e+00    5.33173052e+00      -14.34280951     -8.01773377     30.93430490  
H     -1.72723169      3.94301547      1.50278846      1.89763301e+00   -9.15008500e+00   -4.58310618e+00       -7.69646484     -5.90784329     10.92061398  
H     -1.56992487      3.85030003      1.49991342     -2.65411369e+00   -1.45473782e+01    6.80625353e+00       20.73975432     64.25206439    -94.75049885  
H     -1.58019226      3.84649777      1.48290299     -7.32330617e+00    1.35439286e+01    1.01359630e+01       18.98221176     56.91864917   -116.71527318  
H     -1.49330789      3.77268434      1.59904055      1.53350750e+00    1.71424984e+01    3.72108527e+00       -0.31906217     -8.42231210     22.66732004  
H     -1.63956622      3.76719328      1.61696276      9.46470156e+00    7.10579253e-01   -3.37290618e-01       -7.26506699    -13.69267939     33.73065511  
H     -1.63192471      3.74544701      1.53167252      4.64457177e+00    6.88196575e+00    3.56906980e+00       -9.30825584    -17.44479447     42.10339878  
H      3.29992707     -8.06675933     -2.19850801      1.81045782e+01    5.67896384e+00   -7.77169415e-01        0.00000131     -0.00000329     -0.00000092  
H      3.34561537     -8.08246581     -2.25517422     -2.54575994e+00   -1.11449062e+01   -3.78437326e+00        0.00000131     -0.00000325     -0.00000093  
H      3.33605300     -8.10993550     -2.34102879      5.62595814e+00    1.93762034e+01    3.53811373e+00        0.00000126     -0.00000320     -0.00000094  
H      3.14960112     -8.12043769     -2.46375667      3.88653744e+00    8.83581069e+00    1.76990926e+00        0.00000123     -0.00000319     -0.00000097  
H      3.22472980     -8.10920916     -2.42976513      4.96223132e+00   -9.85993334e+00    9.00251508e+00        0.00000125     -0.00000322     -0.00000098  
H      3.29947609     -8.06767012     -2.48216384      1.35149186e+00   -1.03551910e+01    5.24713053e+00        0.00000118     -0.00000299     -0.00000090  
H      3.35728813     -7.97432889     -2.53499905     -2.14716288e+00    5.67624947e+00    7.26881892e+00        0.00000118     -0.00000296     -0.00000089  
H      3.36245629     -8.16938319     -2.47259296      2.89800509e+00   -2.28084270e+00   -4.63438410e-01        0.00000109     -0.00000277     -0.00000081  
H      3.30752045     -8.15755782     -2.52973148     -1.00005471e+01   -2.10662870e+00    1.95669994e+00        0.00000113     -0.00000285     -0.00000086  
H      3.24896830     -8.16663569     -2.61892603     -1.41181741e+01   -8.90976265e+00    2.36741298e+00        0.00000108     -0.00000268     -0.00000084  
H      3.16783117     -8.18424995     -2.67952701     -4.58635608e+00   -5.01377719e+00   -2.07471537e+00        0.00000108     -0.00000274     -0.00000086  
H      3.24275545     -8.08737214     -2.67615944     -9.16143133e+00   -1.26433279e+00    8.59704522e+00        0.00000111     -0.00000272     -0.00000086  
H      3.19280388     -8.07272054     -2.64405987      7.13657677e+00   -6.81570783e+00    9.40562196e+00        0.00000114     -0.00000276     -0.00000088  
H      3.14378195     -8.02573969     -2.67884405      2.07480969e+00   -1.53009289e+00    7.76551751e+00        0.00000118     -0.00000285     -0.00000091  
H      3.22766150     -8.05969019     -2.62375794     -6.70033302e+00   -1.08095198e+01    9.98709912e+00        0.00000116     -0.00000275     -0.00000087  
H      3.27753107     -8.08063998     -2.48549066     -4.37956602e+00   -2.25665633e+00   -7.95245743e+00        0.00000118     -0.00000282     -0.00000087  
H      3.20798237     -7.97739996     -2.39990541      7.54366514e+00    2.03495711e+00   -1.38106757e+00        0.00000123     -0.00000298     -0.00000090  
H      3.25053402     -7.79232182     -2.27108141      3.46068413e+00    1.37106793e-01    1.06900576e+00        0.00000139     -0.00000326     -0.00000097  
H      3.22314054     -7.84239949     -2.32173409      6.64483106e-01    6.05907621e+00   -4.07655350e+00        0.00000139     -0.00000331     -0.00000101  
H      3.21272056     -7.82801725     -2.37059530      7.41969536e+00    1.45328103e+01    5.13366868e+00        0.00000141     -0.00000334     -0.00000104  
H      3.23914612     -7.83623093     -2.42382329      1.48641131e+01   -5.83406244e+00   -4.22641104e-01        0.00000139     -0.00000328     -0.00000104  
H      3.15321178     -7.81419954     -2.39452792      7.20166006e+00    4.97686472e+00   -5.83621595e+00        0.00000145     -0.00000347     -0.00000110  
H      3.17907691     -7.87459033     -2.42321079      2.47647923e+00   -7.74399543e+00    4.26655434e+00        0.00000137     -0.00000335     -0.00000106  
H      3.10218360     -7.74658998     -2.43741429     -4.40865724e+00    9.40139230e+00    2.64927569e+00        0.00000143     -0.00000356     -0.00000114  
H      3.11944459     -7.84507987     -2.43056854      8.12340412e+00    4.69434347e+00   -7.72510963e+00        0.00000136     -0.00000348     -0.00000111  
H      3.08782135     -7.98393888     -2.41502791     -5.75730124e+00    5.94344132e+00    2.54824983e+00        0.00000129     -0.00000338     -0.00000102  
H      3.13622182     -7.92885409     -2.41499249     -9.55226839e+00   -1.01762599e+01   -1.12087511e+00        0.00000125     -0.00000321     -0.00000097  
H      3.13735740     -7.90073714     -2.44544094     -7.21128343e+00   -4.57543169e+00   -8.35693736e+00        0.00000131     -0.00000334     -0.00000104  
H      3.22454943     -7.92295597     -2.40037914      1.00743102e+01    7.55922127e+00   -8.07029778e-01        0.00000134     -0.00000334     -0.00000101  
H      3.20702308     -8.04063233     -2.39213233      2.47977723e+01    8.91116980e-01   -3.52080000e+00        0.00000130     -0.00000331     -0.00000101  
H      3.19944409     -8.01886125     -2.28495470      4.55597750e+00   -3.18106007e+00   -1.75210650e+01        0.00000133     -0.00000333     -0.00000099  
H      3.28572222     -8.04425754     -2.28283801      9.57116474e+00    8.81845510e+00    2.82616285e+00        0.00000134     -0.00000331     -0.00000096  
