3
100000  xi=   1.05346936  Mean pot=  -102.74632925  Cent pot=  -104.89484613 kcal/mol
H      0.03255576     -1.17254324     -0.28281381       0.30631526
H      0.12785890      0.25256407      0.07421990       0.18198462
H     -0.16041466      0.91997916      0.20859391       0.13957003
3
200000  xi=   1.05367026  Mean pot=  -102.88235165  Cent pot=  -105.59847075 kcal/mol
H      1.01356199     -0.43346043      0.58906112       0.14377540
H     -0.20408394      0.10290263     -0.09215095       0.20124432
H     -0.80947805      0.33055780     -0.49691017       0.16576562
3
300000  xi=   1.05900725  Mean pot=  -101.90493271  Cent pot=  -105.66353804 kcal/mol
H      0.43007205     -0.90849863      0.79292327       0.27201546
H     -0.12492202      0.08604705     -0.30376674       0.16736134
H     -0.30515003      0.82245158     -0.48915653       0.18926513
3
400000  xi=   1.05573258  Mean pot=  -101.09834584  Cent pot=  -103.88263693 kcal/mol
H      1.30321219      0.07252297      0.29921459       0.12861126
H     -0.23630148     -0.07162040     -0.08920420       0.17945739
H     -1.06691071     -0.00090257     -0.21001039       0.19153364
3
500000  xi=   1.06405324  Mean pot=  -103.81633022  Cent pot=  -106.30101240 kcal/mol
H      0.23748663     -1.33988427      0.07840516       0.14130047
H     -0.00416814      0.28998564     -0.04477995       0.14809420
H     -0.23331850      1.04989863     -0.03362521       0.12966216
3
600000  xi=   1.05314240  Mean pot=  -102.46881221  Cent pot=  -104.99630165 kcal/mol
H     -0.78963211      0.81732872      0.54572406       0.16257244
H      0.16501591     -0.08803085     -0.21741302       0.16122660
H      0.62461620     -0.72929787     -0.32831104       0.17593991
3
700000  xi=   1.05918317  Mean pot=  -103.60471618  Cent pot=  -105.81812809 kcal/mol
H      0.12101950     -0.89843949      0.88096843       0.22871208
H      0.02294990      0.24765306     -0.14367949       0.25816419
H     -0.14396940      0.65078642     -0.73728894       0.12799447
3
800000  xi=   1.05629167  Mean pot=  -103.23491493  Cent pot=  -105.11165179 kcal/mol
H     -0.92703819     -0.58018456      0.53976171       0.18690869
H      0.34538244      0.03512872     -0.02111025       0.24387582
H      0.58165575      0.54505584     -0.51865146       0.16636813
3
900000  xi=   1.05423951  Mean pot=   -99.98728265  Cent pot=  -104.59782869 kcal/mol
H      0.05551165     -1.25465583      0.09526944       0.22210877
H     -0.16156932      0.25770938     -0.13642908       0.16549799
H      0.10605767      0.99694645      0.04115964       0.13839668
3
1000000  xi=   1.06031655  Mean pot=  -102.35944348  Cent pot=  -105.88702803 kcal/mol
H      0.21416498     -0.96839638      0.82850984       0.17690057
H     -0.11836500      0.11453466     -0.29379561       0.19604666
H     -0.09579998      0.85386172     -0.53471423       0.20158738
3
1100000  xi=   1.04480351  Mean pot=  -101.79936497  Cent pot=  -103.85875959 kcal/mol
H     -0.56261825     -0.09913983     -1.01947979       0.17233613
H      0.09550708      0.18469915      0.19034622       0.18750557
H      0.46711117     -0.08555932      0.82913357       0.13426075
3
1200000  xi=   1.05159343  Mean pot=  -101.39138411  Cent pot=  -104.47653739 kcal/mol
H      0.79744105     -0.98525336     -0.09252710       0.13996970
H     -0.17459252      0.16067619      0.12131750       0.15479763
H     -0.62284853      0.82457718     -0.02879040       0.17056607
3
1300000  xi=   1.05245104  Mean pot=  -102.46017975  Cent pot=  -105.22992358 kcal/mol
H      1.07563749     -0.55158780      0.19695658       0.16243908
H     -0.18242006      0.19990168      0.01147197       0.21832762
H     -0.89321743      0.35168612     -0.20842855       0.15946505
3
1400000  xi=   1.04784894  Mean pot=  -102.43927934  Cent pot=  -104.53354577 kcal/mol
H      0.24800979      1.09907864      0.36615138       0.16126546
H     -0.09692220     -0.24231427      0.04180004       0.22513760
H     -0.15108759     -0.85676437     -0.40795142       0.16068229
3
1500000  xi=   1.04909901  Mean pot=  -100.61120032  Cent pot=  -103.49428376 kcal/mol
H      1.13084736     -0.21841045      0.53816981       0.22201007
H     -0.18584593      0.14452096     -0.09686641       0.18826140
H     -0.94500143      0.07388949     -0.44130340       0.19055520
3
1600000  xi=   1.05748438  Mean pot=  -103.30941336  Cent pot=  -105.77278240 kcal/mol
H     -0.69589457     -0.36244637      1.03339460       0.25600593
H      0.12393921      0.15865230     -0.19406589       0.14084562
H      0.57195536      0.20379406     -0.83932871       0.17425901
3
1700000  xi=   1.05824350  Mean pot=  -103.51153758  Cent pot=  -105.53142317 kcal/mol
H      1.18064981      0.38286768     -0.18540982       0.16221820
H     -0.22870761     -0.15439893      0.21653623       0.19070029
H     -0.95194220     -0.22846875     -0.03112641       0.15481613
3
1800000  xi=   1.06075648  Mean pot=  -101.96531590  Cent pot=  -105.91377449 kcal/mol
H      0.03954260      1.21659364     -0.37392662       0.24649255
H     -0.08137613     -0.27975292      0.03696485       0.19523651
H      0.04183352     -0.93684072      0.33696177       0.16468803
3
1900000  xi=   1.04680446  Mean pot=  -101.26749989  Cent pot=  -103.70267802 kcal/mol
H     -0.09966075      0.94275284      0.67146509       0.20579463
H      0.20697500     -0.13140422     -0.22166914       0.19844766
H     -0.10731425     -0.81134863     -0.44979595       0.24415226
3
2000000  xi=   1.06232660  Mean pot=  -102.17818268  Cent pot=  -106.10207082 kcal/mol
H     -0.44444630      0.28763082     -1.19082165       0.19055396
H      0.21242479     -0.17953475      0.21014331       0.17094138
H      0.23202152     -0.10809607      0.98067835       0.25993102
