3
100000  xi=   0.53672178  Mean pot=  -106.27792775  Cent pot=  -109.49232157 kcal/mol
H      0.30848516      1.93067544     -1.66731674       0.21552185
H     -0.27159243      1.67395347     -2.05859511       0.18924290
H     -0.03689272     -3.60462891      3.72591185       0.19078965
3
200000  xi=   0.53734405  Mean pot=  -106.01047915  Cent pot=  -109.43933461 kcal/mol
H     -0.01263224     -1.01437880      2.13117099       0.21338346
H     -0.35172209     -0.84716674      2.78315672       0.17276604
H      0.36435433      1.86154555     -4.91432771       0.15071987
3
300000  xi=   0.54022456  Mean pot=  -104.46880804  Cent pot=  -109.07289473 kcal/mol
H     -1.57541846      1.63657594      0.07376120       0.23001480
H     -2.04432586      2.17875470      0.36787034       0.20165567
H      3.61974432     -3.81533063     -0.44163154       0.22376023
3
400000  xi=   0.53639521  Mean pot=  -107.18900621  Cent pot=  -109.49666499 kcal/mol
H     -1.12492624     -0.61922729     -1.97199881       0.13007920
H     -1.77930168     -0.47807843     -2.29527202       0.28342829
H      2.90422792      1.09730572      4.26727083       0.23822494
3
500000  xi=   0.54315732  Mean pot=  -106.06296986  Cent pot=  -109.49045592 kcal/mol
H      2.42812582      0.25262951     -0.81163235       0.15138660
H      2.52684138     -0.36711536     -0.40848369       0.17397012
H     -4.95496719      0.11448584      1.22011604       0.22572476
3
600000  xi=   0.53946030  Mean pot=  -107.34147934  Cent pot=  -109.34194835 kcal/mol
H      1.03594682     -1.76116935      1.36871993       0.14483175
H      1.73135967     -1.81155997      1.17886097       0.18943343
H     -2.76730649      3.57272932     -2.54758089       0.24340013
3
700000  xi=   0.54050187  Mean pot=  -107.30528476  Cent pot=  -109.43750343 kcal/mol
H     -0.38354569     -2.27084203      1.26316424       0.15732969
H      0.04564680     -1.89601387      1.71898177       0.14003815
H      0.33789889      4.16685590     -2.98214601       0.15290089
3
800000  xi=   0.53551691  Mean pot=  -106.71782669  Cent pot=  -108.81580673 kcal/mol
H      2.34975104     -0.55401486     -1.32494434       0.26156049
H      2.20548967      0.11520618     -1.16621528       0.19044309
H     -4.55524071      0.43880868      2.49115963       0.19914784
3
900000  xi=   0.54483380  Mean pot=  -107.06041354  Cent pot=  -109.43227757 kcal/mol
H      0.54889538     -1.85933647     -1.49471605       0.22284962
H      0.44971622     -1.59331837     -2.16638819       0.20947097
H     -0.99861160      3.45265484      3.66110424       0.20732393
3
1000000  xi=   0.53713252  Mean pot=  -108.03505071  Cent pot=  -109.25945465 kcal/mol
H     -0.91732792     -0.22613582      2.71927051       0.17092347
H     -1.12389217      0.08815829      2.10737068       0.19668509
H      2.04122009      0.13797753     -4.82664119       0.20657485
3
1100000  xi=   0.53347523  Mean pot=  -106.27985797  Cent pot=  -107.82798509 kcal/mol
H      0.38648085     -0.00815351      2.92028141       0.20159454
H      0.06164170      0.15895507      2.34412313       0.13128467
H     -0.44812255     -0.15080156     -5.26440454       0.17669078
3
1200000  xi=   0.54789237  Mean pot=  -107.17840561  Cent pot=  -109.35409228 kcal/mol
H     -0.56998833     -2.18832984     -1.12649193       0.23296681
H      0.09336238     -2.40382457     -0.93471062       0.15367024
H      0.47662595      4.59215441      2.06120255       0.21053928
3
1300000  xi=   0.54491178  Mean pot=  -106.68979820  Cent pot=  -109.49114813 kcal/mol
H      2.19120573     -1.01668904     -0.11255829       0.17437064
H      2.67759284     -0.64868612      0.31645428       0.20938689
H     -4.86879857      1.66537516     -0.20389599       0.20596158
3
1400000  xi=   0.54868900  Mean pot=  -106.82757583  Cent pot=  -109.22264446 kcal/mol
H      1.42936943      0.61634596     -1.66343887       0.13733070
H      1.76457578      1.24243892     -1.95617414       0.15567880
H     -3.19394521     -1.85878488      3.61961301       0.18325000
3
1500000  xi=   0.53772286  Mean pot=  -105.28181971  Cent pot=  -109.43603825 kcal/mol
H      1.07232897      1.57254146      1.56271292       0.17831613
H      1.53343241      1.19030666      2.02076540       0.20598537
H     -2.60576137     -2.76284812     -3.58347832       0.20659520
3
1600000  xi=   0.53905543  Mean pot=  -107.23578197  Cent pot=  -108.81523771 kcal/mol
H     -1.67554205     -2.15158511     -0.55768005       0.20648993
H     -1.75518456     -1.69932536     -0.02574099       0.21489941
H      3.43072662      3.85091047      0.58342104       0.21804306
3
1700000  xi=   0.53909698  Mean pot=  -105.59342880  Cent pot=  -108.13851079 kcal/mol
H     -0.72512235      1.67726398      1.93884396       0.22468947
H     -0.37489872      2.02715270      1.46153663       0.20780390
H      1.10002108     -3.70441667     -3.40038059       0.21333209
3
1800000  xi=   0.53030670  Mean pot=  -106.04799103  Cent pot=  -108.58628399 kcal/mol
H     -0.02424453     -2.23218733      1.25230450       0.16217087
H      0.14629167     -2.63155374      0.70714099       0.20676667
H     -0.12204714      4.86374108     -1.95944548       0.25202737
3
1900000  xi=   0.54688519  Mean pot=  -106.74623948  Cent pot=  -109.00302223 kcal/mol
H     -1.16656813     -2.07429499      1.18274629       0.15482008
H     -1.05830372     -1.53310487      1.62669731       0.18588698
H      2.22487186      3.60739986     -2.80944360       0.16667441
3
2000000  xi=   0.54611857  Mean pot=  -105.73288394  Cent pot=  -109.41180042 kcal/mol
H     -0.81828187      1.33266691     -2.19798009       0.18967677
H     -0.97986806      1.66624217     -1.53876375       0.21750967
H      1.79814993     -2.99890908      3.73674383       0.20819034
