3
100000  xi=   0.99167046  Mean pot=   -99.67194814  Cent pot=  -100.01234981 kcal/mol
H      0.17415410     -0.80737919      0.36171372       0.11932167
H      0.01657501     -0.02437421      0.03772988       0.17746006
H     -0.19072911      0.83175339     -0.39944360       0.24732088
3
200000  xi=   0.99128195  Mean pot=   -97.44559324  Cent pot=   -98.68947637 kcal/mol
H      0.21844899     -0.10387041     -0.92857481       0.18409015
H      0.10810272     -0.04360947     -0.00739675       0.13353570
H     -0.32655171      0.14747987      0.93597156       0.20801194
3
300000  xi=   1.00021702  Mean pot=   -98.07062187  Cent pot=   -99.72566896 kcal/mol
H      0.60981690      0.41113464      0.58296620       0.18349575
H     -0.00972815     -0.03537554      0.03143453       0.20739182
H     -0.60008875     -0.37575910     -0.61440073       0.23195495
3
400000  xi=   1.00737119  Mean pot=   -97.31459741  Cent pot=   -99.64032170 kcal/mol
H      0.78593083      0.51247003     -0.19167502       0.28810716
H      0.01442636     -0.07582043      0.05455782       0.15678307
H     -0.80035719     -0.43664960      0.13711720       0.12372476
3
500000  xi=   0.99309591  Mean pot=  -100.36376204  Cent pot=   -96.98538757 kcal/mol
H     -0.96128127      0.13803018      0.25948100       0.14685079
H     -0.00935361      0.09450556      0.02794710       0.25563467
H      0.97063488     -0.23253573     -0.28742810       0.22417169
3
600000  xi=   1.00677768  Mean pot=   -99.34460343  Cent pot=   -99.60189551 kcal/mol
H      0.76229279      0.21371750     -0.57816653       0.12447916
H     -0.05495162      0.01006996     -0.01170068       0.14499279
H     -0.70734116     -0.22378746      0.58986721       0.23816784
3
700000  xi=   1.00458085  Mean pot=   -99.14690486  Cent pot=   -96.20485421 kcal/mol
H     -0.43584254      0.88852839     -0.23193094       0.18519858
H     -0.12340620     -0.08829386      0.04462077       0.19407484
H      0.55924875     -0.80023453      0.18731017       0.17079267
3
800000  xi=   0.99753857  Mean pot=   -98.34521024  Cent pot=   -99.02640895 kcal/mol
H      0.39118250      0.20565490     -0.84590546       0.18405786
H      0.07132496      0.04588360      0.03554511       0.18196040
H     -0.46250745     -0.25153850      0.81036035       0.17071077
3
900000  xi=   0.99785852  Mean pot=   -97.59456228  Cent pot=   -97.85307245 kcal/mol
H      0.10932235      0.98550803     -0.08226262       0.23466560
H      0.06941355     -0.00350997     -0.03757934       0.25036044
H     -0.17873590     -0.98199806      0.11984196       0.16751554
3
1000000  xi=   1.00510207  Mean pot=   -97.53515238  Cent pot=   -96.34847576 kcal/mol
H     -0.96179681      0.06269916      0.34068809       0.24618863
H      0.04388789      0.13947532     -0.00679233       0.16807386
H      0.91790892     -0.20217449     -0.33389576       0.15321829
3
1100000  xi=   0.99735383  Mean pot=   -98.87210480  Cent pot=   -93.68465466 kcal/mol
H      0.99641226     -0.32537523      0.11140374       0.16940240
H     -0.02549133     -0.06022499      0.10510944       0.23902346
H     -0.97092092      0.38560023     -0.21651319       0.24385086
3
1200000  xi=   0.99415235  Mean pot=   -99.24562124  Cent pot=   -99.69712785 kcal/mol
H      0.20036848     -0.46112315      0.79385657       0.17627966
H      0.01528701     -0.05626294     -0.00461694       0.17201505
H     -0.21565549      0.51738609     -0.78923963       0.22583769
3
1300000  xi=   1.00123919  Mean pot=   -99.68627534  Cent pot=   -94.33695641 kcal/mol
H      0.03622702     -0.96997179     -0.40120804       0.22800311
H     -0.12858806      0.00310513      0.01752733       0.24484449
H      0.09236104      0.96686665      0.38368071       0.23414578
3
1400000  xi=   1.00469905  Mean pot=   -99.94263530  Cent pot=   -97.54780827 kcal/mol
H     -0.81268767     -0.53267680      0.34345609       0.17084856
H      0.01681799     -0.00168900     -0.03116582       0.16793813
H      0.79586969      0.53436580     -0.31229027       0.17404034
3
1500000  xi=   1.00399451  Mean pot=   -97.55759046  Cent pot=   -97.77594324 kcal/mol
H     -0.02991413      0.39948283     -0.84692978       0.17626858
H      0.17595717     -0.07109050      0.00342348       0.20230083
H     -0.14604305     -0.32839233      0.84350631       0.17066243
3
1600000  xi=   0.99561860  Mean pot=  -100.14047327  Cent pot=   -95.36244379 kcal/mol
H      0.94475289     -0.00026318      0.28516782       0.13827685
H     -0.04438451     -0.11109320      0.15578439       0.21929976
H     -0.90036838      0.11135639     -0.44095221       0.22208391
3
1700000  xi=   0.99675565  Mean pot=   -99.79797655  Cent pot=   -98.66236940 kcal/mol
H     -0.56985985     -0.66644881      0.41707268       0.15975039
H      0.05350018     -0.06377200     -0.00019918       0.20089610
H      0.51635967      0.73022081     -0.41687350       0.18366222
3
1800000  xi=   1.00142191  Mean pot=   -96.74576930  Cent pot=   -95.07025742 kcal/mol
H      0.23611735     -0.83533464      0.48581669       0.22529524
H     -0.20613793     -0.02277013      0.00226826       0.24201604
H     -0.02997942      0.85810477     -0.48808495       0.21494101
3
1900000  xi=   0.99993639  Mean pot=   -99.79836013  Cent pot=   -98.96874008 kcal/mol
H     -0.44620771      0.03847292      0.86625773       0.13246493
H      0.04087526     -0.03125664      0.02100525       0.22837864
H      0.40533245     -0.00721627     -0.88726297       0.16504662
3
2000000  xi=   1.00327559  Mean pot=   -98.98366240  Cent pot=   -98.45966070 kcal/mol
H     -0.93695004      0.13299472     -0.30236820       0.16662983
H      0.00383977      0.04243985      0.06911722       0.19429896
H      0.93311027     -0.17543457      0.23325098       0.14011875
