3
100000  xi=   0.95049786  Mean pot=  -102.99120620  Cent pot=  -105.23878881 kcal/mol
H     -0.71094991     -0.56145139     -0.36353610       0.11346981
H     -0.07702697     -0.19580775     -0.18746518       0.16105159
H      0.78797689      0.75725914      0.55100128       0.23070158
3
200000  xi=   0.95501529  Mean pot=  -101.54539831  Cent pot=  -104.02625733 kcal/mol
H      0.40668100     -0.87104143      0.36010883       0.15483241
H      0.07394857     -0.14121143      0.19087386       0.19672654
H     -0.48062957      1.01225287     -0.55098269       0.16761702
3
300000  xi=   0.94382647  Mean pot=  -102.87211119  Cent pot=  -106.10767459 kcal/mol
H      0.03250555     -0.28040125     -1.02346427       0.18148764
H     -0.06618091     -0.09255669     -0.26090196       0.13181298
H      0.03367536      0.37295793      1.28436623       0.16445838
3
400000  xi=   0.95549181  Mean pot=  -101.16186654  Cent pot=  -104.04364878 kcal/mol
H     -0.00504858     -0.23268070      1.00849131       0.18723497
H      0.03147454      0.00575926      0.22344377       0.23600259
H     -0.02642595      0.22692144     -1.23193508       0.17116236
3
500000  xi=   0.95160131  Mean pot=  -101.50709472  Cent pot=  -102.95289437 kcal/mol
H     -0.31325410      0.64810211     -0.47946036       0.20788810
H      0.03245600      0.01447832     -0.38860651       0.21886514
H      0.28079809     -0.66258043      0.86806688       0.18248317
3
600000  xi=   0.94573737  Mean pot=  -102.98399785  Cent pot=  -105.71548786 kcal/mol
H      0.19330116     -0.96348832     -0.03044673       0.18893672
H      0.05203593     -0.25105171     -0.17574498       0.15852745
H     -0.24533709      1.21454004      0.20619171       0.16826439
3
700000  xi=   0.95140005  Mean pot=  -101.47804366  Cent pot=  -104.60319082 kcal/mol
H      0.15085223     -0.23315944      1.00316375       0.16038869
H     -0.00916346     -0.15961734      0.20751380       0.20461079
H     -0.14168877      0.39277679     -1.21067755       0.19464429
3
800000  xi=   0.95323818  Mean pot=  -103.22590179  Cent pot=  -104.96052937 kcal/mol
H      0.01509663      0.64611209     -0.75159238       0.18099680
H     -0.12517386      0.18788574     -0.13758279       0.18194637
H      0.11007723     -0.83399783      0.88917517       0.15654233
3
900000  xi=   0.95570821  Mean pot=  -101.15157830  Cent pot=  -103.61293339 kcal/mol
H      0.16132777     -0.45142359      0.79603609       0.20826305
H      0.29990206     -0.15023161      0.08412327       0.20512795
H     -0.46122983      0.60165520     -0.88015936       0.22550275
3
1000000  xi=   0.95690900  Mean pot=  -102.43416628  Cent pot=  -104.65797904 kcal/mol
H      0.28135334      0.83072101      0.44909162       0.24361143
H      0.02716749      0.18019229      0.11261034       0.13327274
H     -0.30852083     -1.01091330     -0.56170196       0.18986482
3
1100000  xi=   0.96801956  Mean pot=  -100.74017739  Cent pot=  -102.32144031 kcal/mol
H      0.65517256     -0.01708189      0.63181429       0.13585922
H      0.02673450      0.07005184      0.19143664       0.19734834
H     -0.68190706     -0.05296995     -0.82325093       0.19038428
3
1200000  xi=   0.96120295  Mean pot=  -101.09491190  Cent pot=  -103.52634659 kcal/mol
H      0.04503310      0.51535219      0.79546592       0.21099940
H     -0.12806747      0.18747696      0.10320440       0.16202725
H      0.08303437     -0.70282915     -0.89867032       0.15440035
3
1300000  xi=   0.94514399  Mean pot=  -102.75789431  Cent pot=  -105.61438569 kcal/mol
H      0.12960291     -0.84306737     -0.63328669       0.21865373
H      0.05990670     -0.14399021     -0.24212667       0.19143493
H     -0.18950962      0.98705758      0.87541337       0.17381119
3
1400000  xi=   0.94454121  Mean pot=  -102.28595450  Cent pot=  -105.20829520 kcal/mol
H      0.95497394     -0.08662055      0.19527665       0.16516265
H      0.25632520      0.03973399      0.12706213       0.14197868
H     -1.21129914      0.04688656     -0.32233878       0.20399376
3
1500000  xi=   0.93990170  Mean pot=  -103.21519868  Cent pot=  -106.22907927 kcal/mol
H      0.22099900      0.97758775      0.13610181       0.15041737
H      0.27081542      0.20390173      0.19359029       0.15919520
H     -0.49181441     -1.18148948     -0.32969210       0.21731942
3
1600000  xi=   0.94369896  Mean pot=  -103.59202979  Cent pot=  -105.63803817 kcal/mol
H     -0.74639963     -0.30661000      0.52021149       0.15212956
H     -0.20950096     -0.32376829     -0.00806568       0.13675155
H      0.95590059      0.63037828     -0.51214581       0.16270746
3
1700000  xi=   0.95318048  Mean pot=  -101.45298189  Cent pot=  -105.00279015 kcal/mol
H      0.76662698     -0.45673696     -0.39708525       0.16950408
H      0.23421177     -0.01738349     -0.08759455       0.22252064
H     -1.00083875      0.47412045      0.48467980       0.17347502
3
1800000  xi=   0.94962335  Mean pot=  -102.72213109  Cent pot=  -105.07027781 kcal/mol
H      0.67348966      0.01274074     -0.77809053       0.17164641
H      0.26747424     -0.04229175     -0.08873827       0.19650213
H     -0.94096390      0.02955101      0.86682880       0.16338021
3
1900000  xi=   0.94989557  Mean pot=  -101.30879310  Cent pot=  -104.98723449 kcal/mol
H     -0.90674783      0.41177104      0.33234101       0.18042613
H     -0.22318521      0.03247781      0.12033433       0.14367109
H      1.12993304     -0.44424886     -0.45267535       0.26478271
3
2000000  xi=   0.94511661  Mean pot=  -101.66135123  Cent pot=  -105.00091856 kcal/mol
H     -0.61630272     -0.79736141      0.22671697       0.17071046
H     -0.22952802     -0.08376465      0.25269583       0.14219550
H      0.84583074      0.88112606     -0.47941279       0.21837155
