3
100000  xi=   0.06802379  Mean pot=  -106.47850933  Cent pot=  -109.30492870 kcal/mol
H      0.52450352      4.91851172     -0.17012239       0.19911730
H     -0.19350541      4.96792416     -0.13538419       0.21556348
H     -0.33099810     -9.88643588      0.30550658       0.19079095
3
200000  xi=   0.06504939  Mean pot=  -106.19790837  Cent pot=  -109.47559168 kcal/mol
H     -4.29303281     -1.49285211     -2.54496129       0.17000548
H     -3.65528367     -1.20830025     -2.77213243       0.21843467
H      7.94831648      2.70115237      5.31709371       0.12349203
3
300000  xi=   0.07357327  Mean pot=  -102.87500839  Cent pot=  -107.21463084 kcal/mol
H     -0.74521515     -4.84851624     -0.22602846       0.15731421
H     -0.19337891     -4.95196095      0.37486003       0.17561119
H      0.93859406      9.80047719     -0.14883157       0.24639855
3
400000  xi=   0.07577921  Mean pot=  -106.79170865  Cent pot=  -108.61758708 kcal/mol
H     -1.29557642     -2.36330328      3.96766664       0.18539790
H     -1.36349964     -3.03604745      3.79558102       0.21041250
H      2.65907607      5.39935073     -7.76324765       0.13141845
3
500000  xi=   0.07412629  Mean pot=  -107.22939363  Cent pot=  -109.02152651 kcal/mol
H      2.21486478      4.06693607      1.45217808       0.14223454
H      2.60754180      3.76430916      2.05023689       0.19485291
H     -4.82240658     -7.83124522     -3.50241497       0.20314993
3
600000  xi=   0.06870461  Mean pot=  -106.45938842  Cent pot=  -109.22533740 kcal/mol
H     -0.51375364     -2.87308106     -3.91757999       0.13216789
H     -1.10362110     -3.28836263     -3.65409820       0.15610828
H      1.61737473      6.16144369      7.57167818       0.15002306
3
700000  xi=   0.07160384  Mean pot=  -106.00884998  Cent pot=  -108.21614145 kcal/mol
H      2.83809826     -3.54684972      1.86885888       0.17069267
H      2.36323452     -4.02286583      1.71769993       0.17738539
H     -5.20133278      7.56971555     -3.58655881       0.18344907
3
800000  xi=   0.06661611  Mean pot=  -108.11178327  Cent pot=  -109.41232959 kcal/mol
H      0.93223999     -0.67914104      4.66242046       0.21121080
H      1.61917811     -0.87896634      4.79442015       0.17837286
H     -2.55141810      1.55810738     -9.45684061       0.22708837
3
900000  xi=   0.05968705  Mean pot=  -106.02489920  Cent pot=  -109.34148502 kcal/mol
H     -0.11451113     -3.59689081     -3.22579431       0.21323991
H      0.56447522     -3.92495796     -3.33151954       0.12021882
H     -0.44996409      7.52184876      6.55731385       0.20022907
3
1000000  xi=   0.06664059  Mean pot=  -106.11554802  Cent pot=  -107.95932003 kcal/mol
H      3.67212272     -2.76840902     -1.06606745       0.29475201
H      3.99117683     -2.91229529     -1.65425877       0.19823162
H     -7.66329955      5.68070430      2.72032622       0.25675475
3
1100000  xi=   0.07103744  Mean pot=  -106.58932257  Cent pot=  -109.06998116 kcal/mol
H      0.20923318      5.05972477     -1.53403535       0.20701646
H      0.11957373      4.36353248     -1.42362710       0.16830028
H     -0.32880691     -9.42325726      2.95766245       0.18545033
3
1200000  xi=   0.07094231  Mean pot=  -107.41942833  Cent pot=  -108.80421139 kcal/mol
H     -2.68180956      2.48000456      3.74218530       0.15064775
H     -2.07226772      2.42082833      3.39811711       0.18725695
H      4.75407728     -4.90083289     -7.14030241       0.20208686
3
1300000  xi=   0.07422567  Mean pot=  -106.74203860  Cent pot=  -109.38610524 kcal/mol
H     -2.55037897      3.34686535      2.44971598       0.18743310
H     -1.99153601      3.79565852      2.56208032       0.25836953
H      4.54191498     -7.14252387     -5.01179630       0.26101024
3
1400000  xi=   0.07133370  Mean pot=  -106.34508092  Cent pot=  -109.45242848 kcal/mol
H     -0.46743469      4.73932070      1.94401719       0.18621596
H     -0.39213680      4.11025289      2.34950168       0.14914864
H      0.85957149     -8.84957359     -4.29351886       0.16164701
3
1500000  xi=   0.08205358  Mean pot=  -106.15651541  Cent pot=  -108.72041858 kcal/mol
H      0.25560122     -4.37421507      1.70782082       0.22286351
H     -0.37332058     -4.82710471      1.57058015       0.18332515
H      0.11771936      9.20131978     -3.27840097       0.22196768
3
1600000  xi=   0.07269684  Mean pot=  -107.24101876  Cent pot=  -109.45708237 kcal/mol
H      1.14063689     -4.98027385      1.14206431       0.23865885
H      0.70960855     -4.51740463      0.77391568       0.14131188
H     -1.85024544      9.49767848     -1.91597999       0.17039903
3
1700000  xi=   0.06813883  Mean pot=  -107.13888100  Cent pot=  -109.09744384 kcal/mol
H      0.06806027      4.72729347      0.40804016       0.26362708
H      0.50744683      5.15017693      0.04141227       0.19202880
H     -0.57550709     -9.87747040     -0.44945243       0.12710369
3
1800000  xi=   0.06998221  Mean pot=  -104.60170345  Cent pot=  -109.00388475 kcal/mol
H     -4.22997539     -0.57810731     -2.78483141       0.13849766
H     -3.63529302     -0.23367782     -3.14844790       0.15201095
H      7.86526842      0.81178513      5.93327931       0.21118782
3
1900000  xi=   0.08430882  Mean pot=  -107.58683706  Cent pot=  -109.26771903 kcal/mol
H     -0.78694207     -3.86307496      3.33909475       0.18164825
H     -0.47198446     -3.22606519      3.23196724       0.22399634
H      1.25892653      7.08914014     -6.57106199       0.22416620
3
2000000  xi=   0.06757860  Mean pot=  -106.35871394  Cent pot=  -108.63117613 kcal/mol
H      1.92271163      4.48042420     -1.52269338       0.14982260
H      1.60128506      4.08239030     -1.99758113       0.13615940
H     -3.52399669     -8.56281450      3.52027451       0.16943167
