96
100000  xi=   0.21604401  Mean pot=  -104.90105712  Cent pot=  -108.80199459 kcal/mol
H      2.95227263      1.97734829      1.85937649      5.74616199e+00    4.42178907e+00    4.38900933e+00       10.59450705     82.21220179     39.44649741  
H      2.93441030      1.91253415      1.93708339     -1.22514515e+01    5.15685126e+00    9.03593244e+00       13.58451642    100.61573522     28.87762649  
H      3.04983779      1.88943258      1.93935253     -4.51036067e-01   -9.93405685e-01   -6.62639465e-01       -0.01017958     12.69098853      4.11671931  
H      3.01252180      1.89280876      1.90816834     -6.22055626e-01    5.40278958e+00    4.21429817e-01        0.67833989    -13.26258502     -6.14595754  
H      3.05374745      1.93311094      1.93799614      8.34467759e+00    1.95573358e+00    1.11862919e+01       -6.04266676    109.98405913     50.62638071  
H      3.04650901      2.07494633      1.78722151     -1.40908822e+00    1.57293402e+01    7.17145912e+00        4.19301549    -19.45830479    -17.24145702  
H      2.97098046      2.10878698      1.68649422      4.17597648e+00   -1.65775223e+00    9.58794078e-01       -3.97548531    -64.24157892    -49.35748070  
H      2.93093657      2.04233611      1.74874734     -2.49054636e+00    1.41140444e+00   -1.20852078e+01       -6.88867583    -69.38308085    -43.19063168  
H      2.91715642      2.03590954      1.76644713     -9.00547587e+00    3.03083496e+00   -7.04750920e+00       -5.03289627    -39.50669467    -29.60750293  
H      2.73603024      2.03539361      1.84211336      4.30686030e+00   -4.76976066e+00   -9.54967890e+00      -12.35115295    -62.48832908    -34.34865165  
H      2.75958500      1.94320946      1.85423961      2.91648795e+00   -8.45995645e+00    9.87779635e+00       -8.75133388    -79.22049121    -29.62405719  
H      2.62541645      2.03002744      1.84416681     -3.72964337e+00   -4.45398705e+00    2.35795442e+00      -22.67680933    -69.80903625    -30.19710175  
H      2.57764404      1.94524379      1.98452782      8.37296974e+00    5.88326348e+00   -5.02816697e+00      -18.30371835    -79.11979376    -17.47103713  
H      2.51418476      1.87646901      1.89622349     -7.02560314e-01    7.40490401e+00   -5.20308438e+00      -23.19927472    -96.60394853    -23.60109921  
H      2.56543419      1.95330288      1.89158027     -1.09007872e+01    1.85203873e+00    7.01724533e+00       -7.29441300    -66.05482614    -27.96165527  
H      2.68081149      1.95140269      1.99270804     -2.99062467e+00    2.61528809e+00    1.28309100e+01       -0.33838793    -22.59140282     -6.97016152  
H      2.73810624      2.02471158      1.96221391     -3.00323990e+00   -4.02917450e+00    2.43738768e+00        0.77618054    -31.35712276     -9.58400472  
H      2.75705832      2.01809821      2.05343899     -1.87276416e+00   -7.10467916e+00    2.28153742e+00       -1.02486516      5.22833134      0.84009888  
H      2.78464842      1.95929845      1.98032845     -1.77285239e+00   -4.98496632e+00    5.79748904e-03        2.55698833    -17.07789151     -8.89372735  
H      2.72278620      1.94779186      1.98183021     -1.29259111e+01   -4.46811316e+00   -1.86294634e+00       -0.77895093     12.94436845      7.26849093  
H      2.82080325      1.98433280      1.97127014      4.32168847e+00   -4.24869560e+00    3.26507015e+00       -6.33057248     13.67337685     10.33732528  
H      2.79668448      1.93493906      1.93739179     -7.17148282e+00    3.56578042e+00    6.32073365e+00        0.92413852     -3.80476534     -3.15908279  
H      2.87155075      1.93826889      1.89389904     -4.51236732e+00    5.35746370e+00   -2.07028153e+00        6.84866812    -45.70384066    -39.78467805  
H      2.85157423      1.94232785      1.97756244      8.97180043e+00    5.65610957e+00    3.08979986e+00       -2.32525296    -49.76879349    -32.17532737  
H      2.97950139      1.87232559      1.96882351      6.60265730e+00    1.69589093e+00   -8.36668539e+00        7.17173823    -79.59074977    -45.87044007  
H      3.08508343      1.91594235      1.83229297      1.20863389e+01    1.61566497e+00    3.56879811e+00       18.61766082    -69.90284103    -44.20063361  
H      3.06246450      2.02291867      1.78305903      6.87733884e+00   -1.43319522e+00   -4.48424718e-02       23.91954479    -78.11946973    -58.48792219  
H      2.97165474      1.99383138      1.87793930      2.67261755e+00   -4.52149657e+00   -8.51205576e+00        1.79342812    -44.14712618    -27.39359360  
H      3.05635751      2.01554404      1.82247788      6.18282812e+00    1.88288632e+01    1.12733336e+01        7.82119686    -18.39293958    -15.24280773  
H      3.01266954      1.96393359      1.90243420      5.03226733e+00    1.60341480e+01   -1.39249733e+00      -10.53991590     89.00631959     65.24785079  
H      2.97175704      1.91295874      1.89273164      1.38864656e+01   -1.81464231e+00   -2.01465577e+00        4.58960343    -22.90006389    -15.87160049  
H      2.96882705      1.95334683      1.86215755      1.06466892e+01   -1.01959126e+01   -1.23916540e+00      -25.66339192    135.04561152     82.24380294  
H      3.02822371      2.56672044      2.14216500      2.71619837e+00   -3.06945044e+00   -1.31063389e+01      -10.59450312    -82.21219864    -39.44649473  
H      3.01789872      2.53090363      2.11456102     -5.72157176e+00   -9.19667877e+00   -1.69625603e+00      -13.58451247   -100.61573205    -28.87762373  
H      3.04928351      2.58030514      2.16345861     -1.15169851e+01   -1.05565354e+00   -5.21491385e+00        0.01018323    -12.69098561     -4.11671674  
H      2.97727328      2.58197346      2.22753123      5.02787267e+00   -6.28370956e-01   -1.24053172e+01       -0.67833654     13.26258766      6.14595991  
H      3.02191054      2.51258223      2.20473056     -7.95763174e+00    6.29389405e+00    7.91123776e+00        6.04267019   -109.98405642    -50.62637828  
H      2.92275489      2.64924583      2.29609216      2.39885874e+00   -3.73777403e+00    8.35228873e+00       -4.19301205     19.45830758     17.24145948  
H      3.01508709      2.82152469      2.23409810      4.95480002e+00   -3.53979199e+00    4.03291116e+00        3.97548888     64.24158183     49.35748326  
H      3.00679384      2.80637405      2.22435726      9.03711986e+00   -1.09204547e+01    5.76315350e+00        6.88867929     69.38308374     43.19063416  
H      3.00007792      2.68681762      2.25425719     -2.03598349e+00   -3.92002002e+00   -1.07326716e+00        5.03289968     39.50669748     29.60750538  
H      2.88483013      2.78821849      2.25592696     -2.24700771e+00    4.30746889e+00    4.13690443e+00       12.35115627     62.48833185     34.34865412  
H      2.85372344      2.79538723      2.17290671      8.47106698e-01    8.63473060e+00   -2.96501103e+00        8.75133710     79.22049387     29.62405958  
H      2.88079517      2.81619363      2.18423655      2.97510066e+00    1.28407934e+01    1.53413029e+01       22.67681278     69.80903912     30.19710435  
H      2.77751305      2.80919900      2.17530428     -1.12211181e+00   -9.81486811e+00   -1.62582630e+01       18.30372182     79.11979664     17.47103978  
H      2.74524106      2.83860898      2.13128181     -8.42085833e+00   -1.23236428e+01   -1.27395352e+01       23.19927834     96.60395149     23.60110196  
H      2.65356248      2.75135157      2.22940211     -6.12407688e+00    2.78567401e+01   -3.39223377e+00        7.29441667     66.05482921     27.96165808  
H      2.69187698      2.69015069      2.22063518      1.05949958e+01    1.85756980e-01    9.66759825e+00        0.33839164     22.59140591      6.97016432  
H      2.71947222      2.77751456      2.19230097     -1.60683314e+00   -1.19950400e+01   -3.16772046e+00       -0.77617679     31.35712583      9.58400745  
H      2.61735062      2.73081265      2.16795920     -4.19721103e+00    1.01463546e+01    3.63921856e+00        1.02486938     -5.22832795     -0.84009582  
H      2.68367240      2.63370880      2.33154407     -1.85808701e+00   -8.92588884e+00    2.89784346e+00       -2.55698426     17.07789474      8.89373032  
H      2.68481517      2.57878072      2.33614153      3.61960719e-01    3.11029521e-01    4.01822653e+00        0.77895504    -12.94436520     -7.26848791  
H      2.57101001      2.52385990      2.37916258     -3.30602833e+00   -7.07830578e-02   -7.38160624e+00        6.33057649    -13.67337366    -10.33732228  
H      2.65931610      2.50049934      2.40697446      9.21660013e+00    3.60138998e+00    5.01977900e+00       -0.92413451      3.80476845      3.15908573  
H      2.77696666      2.56946574      2.44334878      1.56407576e+01    2.08538541e+00   -1.19029594e+01       -6.84866432     45.70384362     39.78468081  
H      2.88443988      2.64577054      2.43233535     -6.68518605e-01    1.61645088e+01   -6.76838270e-01        2.32525669     49.76879631     32.17533007  
H      2.90580321      2.69021590      2.44019724     -3.90388309e+00    7.83483213e+00    4.92532602e+00       -7.17173467     79.59075248     45.87044262  
H      2.88443256      2.66931669      2.30866307      4.14117628e+00   -4.95672280e+00   -1.15091367e+00      -18.61765739     69.90284368     44.20063599  
H      2.82402141      2.80165629      2.36609864     -3.37800197e-02   -8.03479245e+00   -1.07761658e+01      -23.91954133     78.11947245     58.48792461  
H      2.94328349      2.69222046      2.31129451      6.00045885e-01   -1.17825467e+01    1.73994836e+01       -1.79342461     44.14712891     27.39359609  
H      2.81508211      2.58294639      2.29270206     -4.68342466e+00    6.87364909e+00    7.76874221e+00       -7.82119314     18.39294250     15.24281035  
H      2.95132326      2.48198379      2.28220119      2.74103598e+00    4.52798212e+00   -1.52060468e+00       10.53991947    -89.00631678    -65.24784826  
H      2.84495635      2.54563770      2.33122944      3.69881729e+00    9.04764988e-01    1.02848605e+00       -4.58959965     22.90006686     15.87160313  
H      2.87008587      2.47294148      2.17859463      3.09053093e-01    1.23919868e+01    1.13356275e+00       25.66339587   -135.04560837    -82.24380019  
H     -5.64043259     -4.69780117     -3.91052849      1.54797026e+01    5.06289847e+00   -2.00924529e+00       -0.00000394     -0.00000315     -0.00000268  
H     -5.59474688     -4.71353095     -3.96722023     -5.17041434e+00   -1.17589584e+01   -5.01424655e+00       -0.00000395     -0.00000317     -0.00000275  
H     -5.60429723     -4.74099804     -4.05303239      3.00026721e+00    1.87619240e+01    2.30457965e+00       -0.00000366     -0.00000292     -0.00000257  
H     -5.79076652     -4.75148127     -4.17580528      1.26234782e+00    8.21989505e+00    5.40258945e-01       -0.00000335     -0.00000264     -0.00000237  
H     -5.71562091     -4.74028688     -4.14178130      2.33657982e+00   -1.04729028e+01    7.77006578e+00       -0.00000343     -0.00000271     -0.00000243  
H     -5.64088535     -4.69871002     -4.19418893     -1.27323208e+00   -1.09714235e+01    4.01545138e+00       -0.00000344     -0.00000279     -0.00000246  
H     -5.58307237     -4.60539751     -4.24704171     -4.77196867e+00    5.06249843e+00    6.03865827e+00       -0.00000358     -0.00000291     -0.00000256  
H     -5.57789503     -4.80044183     -4.18459744      2.72406777e-01   -2.89545725e+00   -1.69689460e+00       -0.00000346     -0.00000289     -0.00000248  
H     -5.63284707     -4.78860431     -4.24178186     -1.26247464e+01   -2.72228889e+00    7.27205522e-01       -0.00000341     -0.00000280     -0.00000246  
H     -5.69138143     -4.79771235     -4.33093825     -1.67439077e+01   -9.52282107e+00    1.13462624e+00       -0.00000332     -0.00000278     -0.00000247  
H     -5.77253192     -4.81528858     -4.39155677     -7.21093799e+00   -5.63011588e+00   -3.30598902e+00       -0.00000322     -0.00000266     -0.00000239  
H     -5.69760320     -4.71844385     -4.38819818     -1.17863947e+01   -1.87781820e+00    7.36654721e+00       -0.00000344     -0.00000287     -0.00000260  
H     -5.74754879     -4.70377529     -4.35606614      4.51109763e+00   -7.43065731e+00    8.17232135e+00       -0.00000347     -0.00000288     -0.00000265  
H     -5.79658511     -4.65678959     -4.39089536     -5.49428072e-01   -2.14546189e+00    6.53610208e+00       -0.00000362     -0.00000296     -0.00000274  
H     -5.71268763     -4.69076514     -4.33576687     -9.32611786e+00   -1.14227284e+01    8.75402524e+00       -0.00000367     -0.00000306     -0.00000280  
H     -5.66283349     -4.71167814     -4.19752507     -7.00401859e+00   -2.87303664e+00   -9.18333197e+00       -0.00000371     -0.00000309     -0.00000279  
H     -5.73237447     -4.60847426     -4.11193985      4.91854624e+00    1.42169194e+00   -2.61193938e+00       -0.00000374     -0.00000307     -0.00000273  
H     -5.68982025     -4.42337284     -3.98309034      8.35344220e-01   -4.78166926e-01   -1.64068931e-01       -0.00000421     -0.00000339     -0.00000306  
H     -5.71722574     -4.47345310     -4.03378543     -1.95982021e+00    5.44402537e+00   -5.30596704e+00       -0.00000407     -0.00000323     -0.00000296  
H     -5.72762831     -4.45908982     -4.08260162      4.79389014e+00    1.39193979e+01    3.90037078e+00       -0.00000411     -0.00000324     -0.00000302  
H     -5.70121966     -4.46726936     -4.13586204      1.22397687e+01   -6.45042097e+00   -1.65314010e+00       -0.00000401     -0.00000319     -0.00000300  
H     -5.78714324     -4.44527577     -4.10655773      4.57638881e+00    4.36376650e+00   -7.06748592e+00       -0.00000401     -0.00000311     -0.00000294  
H     -5.76127904     -4.50563783     -4.13522300     -1.48711435e-01   -8.35957101e+00    3.03376627e+00       -0.00000380     -0.00000296     -0.00000276  
H     -5.83818153     -4.37764744     -4.14946469     -7.03305619e+00    8.78667436e+00    1.41978170e+00       -0.00000373     -0.00000282     -0.00000270  
H     -5.82090432     -4.47614948     -4.14257303      5.49760611e+00    4.08067658e+00   -8.95856512e+00       -0.00000356     -0.00000270     -0.00000255  
H     -5.85254533     -4.61497831     -4.12707054     -8.38156584e+00    5.32716725e+00    1.31808609e+00       -0.00000343     -0.00000265     -0.00000238  
H     -5.80413151     -4.55993155     -4.12701758     -1.21776851e+01   -1.07892499e+01   -2.35255220e+00       -0.00000346     -0.00000272     -0.00000242  
H     -5.80300035     -4.53178154     -4.15745705     -9.83631831e+00   -5.19127660e+00   -9.58938957e+00       -0.00000352     -0.00000273     -0.00000249  
H     -5.71581432     -4.55401733     -4.11242773      7.44979263e+00    6.94484092e+00   -2.03667873e+00       -0.00000371     -0.00000292     -0.00000263  
H     -5.73332630     -4.67169856     -4.10413591      2.21720126e+01    2.77158035e-01   -4.75433380e+00       -0.00000358     -0.00000281     -0.00000253  
H     -5.74092323     -4.64990243     -3.99700068      1.93176631e+00   -3.79718248e+00   -1.87509404e+01       -0.00000377     -0.00000297     -0.00000265  
H     -5.65462968     -4.67533552     -3.99485851      6.94562185e+00    8.20550955e+00    1.59408943e+00       -0.00000395     -0.00000315     -0.00000275  
