3
100000  xi=   0.25381661  Mean pot=  -107.81721501  Cent pot=  -109.20189907 kcal/mol
H      1.69571459      3.50524321     -0.49513390       0.17756963
H      2.26858487      3.46185248     -0.06840547       0.22642319
H     -3.96429946     -6.96709569      0.56353937       0.19078889
3
200000  xi=   0.24784243  Mean pot=  -104.55584690  Cent pot=  -109.46011937 kcal/mol
H      0.88115210     -1.18992628     -4.11627160       0.19688398
H      0.87248636     -0.63020068     -3.61525159       0.13703777
H     -1.75363846      1.82012697      7.73152319       0.19451735
3
300000  xi=   0.25301616  Mean pot=  -107.37952752  Cent pot=  -109.14726427 kcal/mol
H      3.96819595     -0.20781809     -1.45745889       0.17964297
H      3.73399324      0.18584054     -0.91050369       0.20757010
H     -7.70218919      0.02197755      2.36796259       0.22165433
3
400000  xi=   0.25607825  Mean pot=  -106.73560632  Cent pot=  -109.42634679 kcal/mol
H      2.24115276     -3.54329421     -0.51699899       0.15447311
H      1.92892277     -3.13813224     -1.07224528       0.16282997
H     -4.17007553      6.68142645      1.58924427       0.21044929
3
500000  xi=   0.25124779  Mean pot=  -106.42353325  Cent pot=  -109.49516453 kcal/mol
H      0.59992906      2.02789021     -3.73000973       0.16736711
H      0.03728126      1.62374576     -3.45828022       0.17228485
H     -0.63721032     -3.65163597      7.18828995       0.15746174
3
600000  xi=   0.25999481  Mean pot=  -106.93507137  Cent pot=  -109.37002774 kcal/mol
H      2.07144361     -3.73686570      0.60102907       0.17155813
H      2.13279273     -2.97983434      0.60537858       0.17936840
H     -4.20423634      6.71670004     -1.20640766       0.20934255
3
700000  xi=   0.24926330  Mean pot=  -106.27639172  Cent pot=  -109.49401725 kcal/mol
H      2.61284644      2.10701676      1.95785420       0.20629787
H      3.00232807      1.71139333      2.45412094       0.15914071
H     -5.61517451     -3.81841009     -4.41197513       0.18621560
3
800000  xi=   0.26174734  Mean pot=  -106.35328380  Cent pot=  -109.49500710 kcal/mol
H     -0.60772695     -3.00526477      2.50836568       0.22493331
H      0.04058566     -3.29406228      2.30224019       0.21289969
H      0.56714129      6.29932705     -4.81060587       0.20200777
3
900000  xi=   0.25703921  Mean pot=  -107.73205657  Cent pot=  -109.48076837 kcal/mol
H      2.75649790     -2.40004835      1.07051894       0.18590359
H      2.67034811     -2.85296693      1.64328372       0.17386867
H     -5.42684601      5.25301529     -2.71380266       0.23566930
3
1000000  xi=   0.26020311  Mean pot=  -105.42857130  Cent pot=  -109.36484114 kcal/mol
H      0.78468707      3.19946921     -2.04482304       0.18470817
H      1.52627399      3.15209388     -2.20369710       0.23335777
H     -2.31096106     -6.35156309      4.24852013       0.16435925
3
1100000  xi=   0.25935534  Mean pot=  -106.70248595  Cent pot=  -109.48249327 kcal/mol
H     -1.07545996      1.88777870      3.78520223       0.14868347
H     -1.08210584      1.47727475      3.17483920       0.14823096
H      2.15756580     -3.36505345     -6.96004143       0.24477177
3
1200000  xi=   0.26627105  Mean pot=  -107.29398224  Cent pot=  -108.83681684 kcal/mol
H     -3.14707309     -1.56552895      2.44314904       0.14092467
H     -2.48299992     -1.55638994      2.21162101       0.18642865
H      5.63007301      3.12191889     -4.65477006       0.15190889
3
1300000  xi=   0.25549946  Mean pot=  -107.08759842  Cent pot=  -109.08186845 kcal/mol
H     -1.88144654     -3.52646242     -0.73070011       0.19807791
H     -2.24950074     -3.27248920     -0.17794069       0.13191039
H      4.13094729      6.79895161      0.90864080       0.19666989
3
1400000  xi=   0.26142694  Mean pot=  -107.82376092  Cent pot=  -109.47292774 kcal/mol
H     -0.19737609      4.30662280     -0.31850356       0.16262621
H      0.12894118      3.65827975     -0.42735729       0.17885383
H      0.06843491     -7.96490255      0.74586085       0.20320420
3
1500000  xi=   0.24786749  Mean pot=  -106.24414785  Cent pot=  -108.31075260 kcal/mol
H      3.21073890      1.27823691      1.86896983       0.18246697
H      3.02762939      1.44300949      2.51459556       0.21925202
H     -6.23836829     -2.72124640     -4.38356539       0.25249341
3
1600000  xi=   0.26406248  Mean pot=  -106.91689594  Cent pot=  -109.24173068 kcal/mol
H     -1.03860774     -2.56038646      2.43959838       0.12964112
H     -1.19565994     -2.63608274      3.18669895       0.15706514
H      2.23426768      5.19646920     -5.62629733       0.14873832
3
1700000  xi=   0.26862537  Mean pot=  -107.60245953  Cent pot=  -109.37665722 kcal/mol
H      0.49965110     -3.33408005     -1.85639260       0.18491224
H      0.72601874     -3.77833022     -1.33028176       0.20383001
H     -1.22566984      7.11241027      3.18667436       0.22862272
3
1800000  xi=   0.25939374  Mean pot=  -107.50521118  Cent pot=  -109.08696062 kcal/mol
H     -1.81069611      1.29222733     -3.10388885       0.22028253
H     -2.38442555      0.93507222     -3.32534490       0.16129939
H      4.19512166     -2.22729954      6.42923375       0.12986877
3
1900000  xi=   0.26420784  Mean pot=  -106.43231293  Cent pot=  -109.49543263 kcal/mol
H      3.23327416      1.88950530     -2.18972011       0.19784766
H      2.58301340      1.79859735     -1.83980354       0.14372850
H     -5.81628756     -3.68810265      4.02952365       0.15667632
3
2000000  xi=   0.26216665  Mean pot=  -105.98072227  Cent pot=  -109.20656964 kcal/mol
H      0.69296204     -3.36826605     -2.24975768       0.15422684
H      0.26800236     -3.47758264     -1.68415551       0.21811046
H     -0.96096441      6.84584869      3.93391319       0.21828935
