3
100000  xi=   0.30899463  Mean pot=  -107.53090936  Cent pot=  -109.44683728 kcal/mol
H      1.22980416      3.20618123     -1.40280154       0.22875447
H      1.22370526      3.52933907     -0.72286494       0.15202447
H     -2.45350942     -6.73552030      2.12566648       0.19079092
3
200000  xi=   0.32017343  Mean pot=  -106.55512348  Cent pot=  -109.28194519 kcal/mol
H      0.68573620     -3.66840444      1.07990049       0.19144796
H      0.54654352     -3.46094459      0.40532396       0.16477801
H     -1.23227973      7.12934903     -1.48522445       0.20628172
3
300000  xi=   0.31385560  Mean pot=  -105.78969974  Cent pot=  -104.11483849 kcal/mol
H     -0.40311589      3.18717833     -1.52299216       0.21139666
H      0.11697048      3.55440263     -1.58916922       0.22920395
H      0.28614541     -6.74158096      3.11216139       0.22319272
3
400000  xi=   0.30346008  Mean pot=  -106.04234118  Cent pot=  -109.38908608 kcal/mol
H     -0.26270745     -2.40160923      2.94968062       0.18247506
H      0.21939056     -1.92399811      3.20682447       0.14975967
H      0.04331689      4.32560734     -6.15650509       0.23448254
3
500000  xi=   0.31438295  Mean pot=  -106.97116569  Cent pot=  -109.21401172 kcal/mol
H      2.88582513     -0.59003745     -1.66679926       0.19356828
H      3.51071125     -0.77156720     -1.96591811       0.25756385
H     -6.39653638      1.36160465      3.63271737       0.25031911
3
600000  xi=   0.30905655  Mean pot=  -107.15340498  Cent pot=  -108.70182875 kcal/mol
H      3.96277915      0.21927754      0.70641108       0.11856342
H      3.33326311      0.63346542      0.93562437       0.11289269
H     -7.29604226     -0.85274297     -1.64203545       0.30280705
3
700000  xi=   0.30273926  Mean pot=  -105.43605831  Cent pot=  -109.47651244 kcal/mol
H      0.29121441     -3.13065443     -1.59423994       0.21452696
H      0.71407052     -3.39557232     -2.13324780       0.18995755
H     -1.00528493      6.52622675      3.72748774       0.22165041
3
800000  xi=   0.31340248  Mean pot=  -106.54186757  Cent pot=  -109.47397206 kcal/mol
H     -1.62446889      1.26888158     -2.76376982       0.20087320
H     -2.30261128      1.51067121     -2.97128990       0.24219910
H      3.92708018     -2.77955280      5.73505972       0.15822094
3
900000  xi=   0.30294210  Mean pot=  -106.36636518  Cent pot=  -109.44405611 kcal/mol
H     -0.29624382      0.99430854      3.59285425       0.16067793
H     -0.11094875      1.70655536      3.43281377       0.22541065
H      0.40719257     -2.70086390     -7.02566801       0.25714556
3
1000000  xi=   0.31042633  Mean pot=  -104.31777491  Cent pot=  -108.79116921 kcal/mol
H     -3.63340563     -1.04006004     -1.27959006       0.15433226
H     -2.98654002     -1.02903779     -1.55230886       0.20274595
H      6.61994564      2.06909782      2.83189891       0.17794138
3
1100000  xi=   0.30937739  Mean pot=  -107.23689126  Cent pot=  -109.49378437 kcal/mol
H      1.08827590     -3.03514205      1.71420887       0.26314195
H      0.47426672     -3.44454504      1.68564506       0.19110491
H     -1.56254263      6.47968709     -3.39985393       0.19914001
3
1200000  xi=   0.30520002  Mean pot=  -105.91297439  Cent pot=  -109.49567266 kcal/mol
H     -1.34147112      3.73306709     -0.22120635       0.25348311
H     -1.42793077      3.21517583     -0.74178199       0.25493844
H      2.76940189     -6.94824291      0.96298834       0.20345458
3
1300000  xi=   0.31281485  Mean pot=  -106.85282363  Cent pot=  -109.47858392 kcal/mol
H     -3.32750430     -1.20751887     -0.32909262       0.15439364
H     -3.40442485     -1.93458945     -0.40317024       0.21161521
H      6.73192915      3.14210831      0.73226286       0.12997595
3
1400000  xi=   0.29876299  Mean pot=  -104.88215854  Cent pot=  -109.34082218 kcal/mol
H      2.38581679     -0.32503030      3.19634892       0.22451057
H      2.64051420     -0.32631149      2.47869790       0.18611259
H     -5.02633100      0.65134179     -5.67504683       0.22824486
3
1500000  xi=   0.30900882  Mean pot=  -106.82494896  Cent pot=  -109.35059182 kcal/mol
H     -3.20310324      1.70131068      1.01013532       0.18030666
H     -3.09409186      1.30934898      1.65309804       0.12992695
H      6.29719509     -3.01065966     -2.66323336       0.18744622
3
1600000  xi=   0.30347228  Mean pot=  -105.67222182  Cent pot=  -109.49018593 kcal/mol
H      1.88419658     -0.94511228      3.37786732       0.22026179
H      1.31271490     -0.46860616      3.32537320       0.18446057
H     -3.19691148      1.41371844     -6.70324052       0.20088297
3
1700000  xi=   0.31663049  Mean pot=  -105.73716351  Cent pot=  -109.49519589 kcal/mol
H      0.35117149     -3.74107961     -0.93896469       0.22213097
H      0.96582016     -3.35904155     -0.76581612       0.19715535
H     -1.31699166      7.10012116      1.70478081       0.27398698
3
1800000  xi=   0.30936437  Mean pot=  -106.60721447  Cent pot=  -107.94696043 kcal/mol
H     -0.69454628      3.00237807      2.31285224       0.19537032
H     -1.00919642      3.05942270      1.70794384       0.18499714
H      1.70374270     -6.06180078     -4.02079608       0.23369560
3
1900000  xi=   0.31706691  Mean pot=  -106.65858246  Cent pot=  -109.39459679 kcal/mol
H     -2.31780886     -2.11848315      2.50318603       0.21601509
H     -2.26990704     -1.88702352      1.78331572       0.19815604
H      4.58771590      4.00550667     -4.28650175       0.18519101
3
2000000  xi=   0.31890303  Mean pot=  -106.88847379  Cent pot=  -109.27650412 kcal/mol
H     -1.45980992     -1.02028136      2.85688929       0.17961964
H     -1.86560989     -1.11119522      3.44352131       0.19870810
H      3.32541981      2.13147659     -6.30041060       0.17773911
