3
100000  xi=   0.52640298  Mean pot=  -107.21096610  Cent pot=  -109.44608536 kcal/mol
H      0.33032848      1.89974612     -2.00204124       0.21780489
H     -0.20955200      2.05098809     -1.53363996       0.18062991
H     -0.12077649     -3.95073421      3.53568120       0.19078892
3
200000  xi=   0.54000684  Mean pot=  -108.36705912  Cent pot=  -109.01331297 kcal/mol
H     -0.96010204     -1.37792163     -1.57902924       0.15319001
H     -0.91317693     -1.91936088     -2.03379728       0.17338166
H      1.87327896      3.29728251      3.61282652       0.20720656
3
300000  xi=   0.53123869  Mean pot=  -107.40279737  Cent pot=  -109.49486592 kcal/mol
H     -2.51543163     -0.63140271      1.06595633       0.24110244
H     -2.00183310     -0.30064967      1.49123329       0.18562289
H      4.51726473      0.93205238     -2.55718963       0.31164853
3
400000  xi=   0.53612141  Mean pot=  -106.58735106  Cent pot=  -109.49423415 kcal/mol
H      0.08023940     -2.19442124      1.38848369       0.21519199
H     -0.59490979     -2.30875534      1.11151088       0.22110829
H      0.51467039      4.50317658     -2.49999457       0.21206914
3
500000  xi=   0.52505985  Mean pot=  -105.94595544  Cent pot=  -109.49750520 kcal/mol
H      1.87526641      1.54944486      1.39734930       0.19879470
H      1.25641856      1.37276586      1.76782574       0.16616699
H     -3.13168497     -2.92221072     -3.16517504       0.15662930
3
600000  xi=   0.53077484  Mean pot=  -106.38597200  Cent pot=  -109.02673854 kcal/mol
H     -0.12140328      2.22384126      1.14509496       0.21928494
H     -0.69892524      2.22344878      1.55652592       0.14201635
H      0.82032852     -4.44729003     -2.70162088       0.20017096
3
700000  xi=   0.52888331  Mean pot=  -105.52517294  Cent pot=  -107.87658632 kcal/mol
H     -2.58491161     -0.15756560      1.19634167       0.16981493
H     -2.15809706     -0.65621391      1.00739882       0.14678858
H      4.74300867      0.81377951     -2.20374049       0.16941657
3
800000  xi=   0.52811901  Mean pot=  -104.00017301  Cent pot=  -107.17086519 kcal/mol
H      1.86166048     -1.62934487      0.77414503       0.21023498
H      1.47892528     -2.16389383      0.63366458       0.16187758
H     -3.34058576      3.79323869     -1.40780961       0.23581878
3
900000  xi=   0.52821620  Mean pot=  -107.29482558  Cent pot=  -109.30511715 kcal/mol
H      0.94214993      0.52015825      2.80061617       0.20029930
H      0.52290837      0.21534134      2.30010970       0.16359354
H     -1.46505830     -0.73549959     -5.10072587       0.21188167
3
1000000  xi=   0.52885323  Mean pot=  -104.55665579  Cent pot=  -109.02986277 kcal/mol
H      0.45698862      0.08709874      2.97065841       0.17188636
H      0.16444390     -0.07317505      2.34481432       0.21117912
H     -0.62143252     -0.01392369     -5.31547274       0.17746375
3
1100000  xi=   0.52951204  Mean pot=  -106.39531206  Cent pot=  -109.13992056 kcal/mol
H     -1.06958697      2.05766560     -1.19165394       0.20241408
H     -1.67539597      1.62280892     -1.39130208       0.15160247
H      2.74498294     -3.68047452      2.58295602       0.17996999
3
1200000  xi=   0.52864166  Mean pot=  -106.41706081  Cent pot=  -109.36230756 kcal/mol
H      1.39505025     -1.15582650      2.44569338       0.19153292
H      1.09035565     -0.95692583      1.81991715       0.16698562
H     -2.48540590      2.11275233     -4.26561053       0.23004902
3
1300000  xi=   0.52717907  Mean pot=  -105.62547514  Cent pot=  -107.96548338 kcal/mol
H     -0.80581332      1.83588250     -1.33232714       0.20888560
H     -1.27280825      2.33324069     -1.27610086       0.17048402
H      2.07862157     -4.16912319      2.60842801       0.19032843
3
1400000  xi=   0.53267391  Mean pot=  -106.38986510  Cent pot=  -107.60808596 kcal/mol
H      2.30712904      1.36796273      1.02659667       0.15270282
H      1.87601447      0.88948669      1.24059672       0.16526569
H     -4.18314351     -2.25744943     -2.26719338       0.16478028
3
1500000  xi=   0.52403254  Mean pot=  -106.78425975  Cent pot=  -109.45765659 kcal/mol
H      2.17315480     -1.80195885      0.56830784       0.14896869
H      1.69610026     -1.52307917      1.07774694       0.14257500
H     -3.86925505      3.32503801     -1.64605477       0.17178949
3
1600000  xi=   0.52613411  Mean pot=  -105.71408410  Cent pot=  -109.34197963 kcal/mol
H      0.00480692      1.11041243     -2.33293843       0.16798472
H      0.74250251      1.29873173     -2.34452289       0.17568848
H     -0.74730944     -2.40914416      4.67746131       0.27621201
3
1700000  xi=   0.53175141  Mean pot=  -106.77599851  Cent pot=  -109.49783486 kcal/mol
H      1.34879655     -2.23693471      0.59229425       0.15264897
H      1.79199290     -1.88415093      0.11297646       0.21545295
H     -3.14078945      4.12108564     -0.70527071       0.15905735
3
1800000  xi=   0.53088969  Mean pot=  -106.18660681  Cent pot=  -108.99944611 kcal/mol
H     -2.46820759     -1.68653962      0.30041933       0.16288534
H     -1.79994349     -1.47218184      0.20551537       0.18497328
H      4.26815108      3.15872146     -0.50593470       0.18514379
3
1900000  xi=   0.53154966  Mean pot=  -105.58349992  Cent pot=  -109.45923900 kcal/mol
H      0.89829396     -1.76826296     -2.09724814       0.14609043
H      0.51645464     -1.89472759     -1.46258978       0.18566528
H     -1.41474860      3.66299055      3.55983793       0.23106523
3
2000000  xi=   0.53298888  Mean pot=  -107.45342768  Cent pot=  -107.25689053 kcal/mol
H     -1.64980287     -2.15389363      0.06329502       0.21630804
H     -1.87083583     -1.67678287     -0.35752199       0.20409527
H      3.52063870      3.83067650      0.29422697       0.18246217
