96
100000  xi=   0.64056707  Mean pot=  -106.85036088  Cent pot=  -109.24032244 kcal/mol
H      0.19681590      1.02795964     -1.62253857      9.90480586e+00   -1.33074019e+01   -3.18628517e+00       -4.02191499      1.54593292     -2.35744366  
H      0.19382163      0.89278580     -1.54661132     -1.19918861e+01    3.68081801e-01   -2.29093407e-01       51.65689821    -33.17192018     37.58587829  
H      0.20689068      0.90638821     -1.51154352     -8.81246996e+00   -1.61542590e+00    6.69953646e+00       25.15218974    -19.97030678     23.62771975  
H      0.21414318      0.99349451     -1.49009626      1.11704159e-01    6.95984384e+00   -8.03066681e+00       40.72778634    -14.98586174     31.36463842  
H      0.21048651      0.96474885     -1.44954815     -6.34524680e-01    7.95991043e+00    7.21390501e+00       31.76569303    -15.41731675     33.11888397  
H      0.17313600      1.11766806     -1.57180626     -1.92430760e-01    4.92333362e+00    1.11623342e+01      -17.67980758      7.24633126    -11.63189423  
H      0.25751807      1.23057003     -1.64246354      7.12290756e-01   -1.11503122e+01   -3.82482900e+00       53.31145812    -15.77000154     29.23094480  
H      0.24734904      1.22129368     -1.67724624     -6.09096274e+00    2.92200172e+00   -1.11602613e+01       41.45382437     -8.30181026     15.10333968  
H      0.16183234      1.14510949     -1.64391783      8.79051639e-01    3.94581467e+00   -1.10323405e+01      -48.11989046     14.19713048    -23.49709912  
H      0.02731139      1.17019899     -1.61529858      6.97008021e+00    6.78843830e+00   -8.08650771e+00      -19.69978647      7.16445541     -8.56339755  
H     -0.00386721      1.15171782     -1.63685548      2.95810083e+00    8.14787188e+00    1.26767820e+01      -68.37334529     21.46406801    -35.92959615  
H     -0.00077566      1.22546799     -1.65356454      5.43225975e+00   -1.67970531e+00    1.54303256e+01        1.87978218     -0.38137653      0.72651397  
H     -0.09465458      1.15613455     -1.62291234      2.24877551e+00   -2.83966022e+00   -1.20735326e+01      -37.85754120     10.88916245    -11.38222018  
H     -0.08040956      1.05302123     -1.72350745     -4.43408005e+00   -4.44094024e+00   -8.93427911e+00       59.63447386    -27.31318274      9.68694972  
H     -0.06910276      1.06808957     -1.69654815     -1.24565282e+01    9.26174227e+00    4.60459703e+00       73.75506534    -27.63710078      7.57329153  
H     -0.09475674      0.98930744     -1.72648770     -3.03138447e+00    8.13010006e-01    1.06715721e+01        5.85583254     -3.79151981     -0.62397944  
H     -0.04408337      1.03070414     -1.69513533     -1.02068455e+01   -1.65672778e+01   -4.48234804e+00       35.34836325    -26.58676062      3.00427543  
H     -0.11219584      1.01010909     -1.58247933      5.23880328e-01   -2.56299656e+00    1.30333481e+01       23.87048371    -19.07346024      8.61565284  
H      0.01355542      1.02038162     -1.60280580     -3.18352864e+00   -1.64487156e+01    6.38481521e-01       41.65407150    -16.45326380      4.56602598  
H     -0.03922260      1.09093056     -1.50381775     -9.25879032e+00   -3.41103001e+00    4.69546571e-01       13.38250046     -1.67637031      5.21055394  
H     -0.04925747      1.06862894     -1.45827345     -5.55200629e+00    8.41556550e+00    2.33375541e+00       26.64393103     -4.35240536     12.67319553  
H     -0.01119100      1.01692548     -1.49307382      5.65164642e+00    4.94611627e+00    9.01121426e-01       22.27006116     -4.54117248      8.42320820  
H      0.14172904      1.08218077     -1.52591664      3.23812892e+00   -8.34024812e-01   -1.18583052e+01       63.93976819     -6.72776690     16.32841641  
H      0.16515323      1.15661016     -1.51902548      8.47375048e-01    9.11897105e+00   -3.93728539e+00       38.66233783     -0.90057650      7.47691585  
H      0.30382252      1.15563066     -1.57147851      2.57504278e+00    9.64809618e+00   -3.10762890e+00       84.53604332      0.48499770      4.41809160  
H      0.33822537      1.11816683     -1.72819413      7.05607799e+00   -1.11376505e+00    1.46687471e+00       81.03487154     -8.34010057      0.20336110  
H      0.29355348      1.25686574     -1.74274698     -5.69619097e+00   -5.96243481e+00    6.05574805e-01       78.77728051     -4.80808611     -3.10388969  
H      0.28965591      1.05739876     -1.70716947      5.57086167e+00   -8.99477992e+00   -1.78439534e+00       78.67522980    -28.98809672     -0.36190555  
H      0.21623758      1.04048555     -1.79884301      4.25002580e+00    9.65413708e+00    1.78082862e+01       38.99944068    -13.55738571     -5.88888940  
H      0.27746942      0.96519873     -1.71617012      7.75555862e+00    2.18166234e+00   -3.82148535e+00       49.39747362    -16.39019550     -1.09758606  
H      0.23040095      0.99260247     -1.63643672      4.91573367e+00   -4.51461338e+00    5.52969706e+00       68.04471021    -17.68984807      8.38649399  
H      0.14350762      0.98845441     -1.67206031      1.48646635e+01    5.08615924e+00    3.30665262e+00      -36.12128585     10.92546459    -12.16352248  
H     -0.40584694      1.25946004     -1.97556013     -3.65711750e+00    1.24248757e+01   -6.37047740e+00        4.02192867     -1.54535612      2.35656035  
H     -0.43103264      1.29405876     -2.00128670     -8.19661377e+00   -6.64893547e+00    6.72021665e+00      -51.65687831     33.17272551    -37.58715683  
H     -0.29734797      1.30678396     -1.98528263     -5.36584713e+00   -2.67762607e+00   -1.34142880e+01      -25.15213874     19.97125419    -23.62917515  
H     -0.41384468      1.22458981     -1.97374868      2.07555208e+00   -4.42065388e+00   -4.79828483e+00      -40.72773498     14.98693200    -31.36611830  
H     -0.32441192      1.22439649     -2.00728500     -1.18915172e+00   -1.95917950e+00    1.10424294e+01      -31.76562312     15.41848103    -33.12048279  
H     -0.39339577      1.34981929     -1.94446894     -1.03358973e+00    4.83270073e+00    3.52125807e+00       17.67982518     -7.24545968     11.63068532  
H     -0.46098402      1.44312463     -2.03644308      6.20353338e+00    3.70825254e+00    7.97069800e+00      -53.31148608     15.77086609    -29.23214344  
H     -0.49918930      1.37081196     -1.94925669      1.04263811e+01   -1.46744934e+01    4.00057379e+00      -41.45388258      8.30245189    -15.10420710  
H     -0.43408710      1.32091424     -1.93488925     -1.41388517e+01   -7.07204110e+00    2.06632740e+00       48.11986370    -14.19637953     23.49608250  
H     -0.59603136      1.39685987     -1.88621284     -7.12041134e+00   -9.49932915e+00    1.83315796e+00       19.69974004     -7.16361164      8.56228437  
H     -0.57233349      1.33016214     -1.93556511     -1.41127451e+00   -1.02089263e+01   -6.60484803e+00       68.37331872    -21.46319167     35.92846060  
H     -0.68254978      1.36414167     -1.91752236     -8.40028323e+00    7.82216107e+00    1.42365819e+00       -1.87987985      0.38225977     -0.72767681  
H     -0.73975130      1.34167030     -1.81684374      2.79008217e+00   -3.33420687e+00   -1.00510597e+01       37.85742390    -10.88824857     11.38098421  
H     -0.84966095      1.40535780     -1.84848137     -6.90718136e+00   -2.71500189e+00   -9.85293614e+00      -59.63462809     27.31422042     -9.68842555  
H     -0.90148526      1.38000387     -1.78203107     -6.77849196e+00    1.81987701e+01   -1.82070570e+00      -73.75525576     27.63807794     -7.57465820  
H     -0.72206142      1.39552787     -1.65973757      8.41904761e+00   -2.47030191e-01    1.09863159e+01       -5.85599410      3.79227477      0.62288605  
H     -0.68788992      1.51494649     -1.74987424      3.38390586e+00   -1.70149327e+00    2.90643120e+00      -35.34846604     26.58749518     -3.00540822  
H     -0.70295302      1.48217388     -1.79575226     -8.80651087e+00    3.36265868e+00   -7.94979133e+00      -23.87056140     19.07422081     -8.61697451  
H     -0.73473618      1.31596675     -1.68485135     -2.66460324e+00    3.00148561e-01    1.42025945e+00      -41.65422021     16.45410081     -4.56734576  
H     -0.74276373      1.17911140     -1.77782198     -5.51508201e+00   -2.99403317e+00    8.45396522e-01      -13.38264536      1.67734543     -5.21203982  
H     -0.74842783      1.18287615     -1.79088469      4.35060061e+00   -1.49694224e+01   -7.29013367e+00      -26.64408998      4.35358706    -12.67496094  
H     -0.72236425      1.16197983     -1.76211717     -5.81886326e+00   -2.57403897e-02    9.59451355e+00      -22.27021000      4.54233508     -8.42501649  
H     -0.68275653      1.16894406     -1.73648283      5.67681540e+00    6.03645558e+00   -2.95094769e+00      -63.93994200      6.72891185    -16.33013900  
H     -0.61863953      1.17488341     -1.67062749      5.23904017e+00    1.04633967e+01    5.50370506e+00      -38.66250514      0.90178511     -7.47876380  
H     -0.60809405      1.15040592     -1.61914838     -2.08644488e+00   -2.36571814e+00   -1.17223669e+00      -84.53621415     -0.48379523     -4.41989207  
H     -0.55819642      1.21043193     -1.73045191      6.95366317e+00   -4.46002253e+00    1.08549082e-01      -81.03497396      8.34100287     -0.20469532  
H     -0.59662658      1.31120199     -1.70768061      1.03277647e+01   -5.75406972e+00   -1.22713615e+01      -78.77739642      4.80892002      3.10268026  
H     -0.56424819      1.37202827     -1.70325134     -4.51254069e+00   -9.54750772e+00    9.83486236e+00      -78.67534875     28.98907334      0.36044909  
H     -0.53430673      1.30140570     -1.68552484     -4.96691599e+00    1.38080850e+01    3.85755987e-01      -38.99957580     13.55818705      5.88767320  
H     -0.50305389      1.22418590     -1.69883945     -2.19244696e+00    1.61346928e+01    7.02322460e-02      -49.39758417     16.39101334      1.09636170  
H     -0.60317490      1.20931691     -1.73918489      1.04519337e+01    1.37182135e+00   -7.36068541e+00      -68.04481145     17.69061408     -8.38766451  
H     -0.49416386      1.18131608     -1.88677122     -6.12027684e+00   -5.13891667e+00   -4.25560309e+00       36.12123348    -10.92484834     12.16256555  
H      0.54911815     -2.44121870      3.68905567      1.76923585e+01    7.30350940e+00   -1.16497645e+00       -0.00001368     -0.00057680      0.00088331  
H      0.59479603     -2.45693996      3.63241652     -2.95691241e+00   -9.51773886e+00   -4.17383444e+00       -0.00001990     -0.00080533      0.00127854  
H      0.58521994     -2.48436218      3.54650406      5.21586295e+00    2.09998492e+01    3.15048018e+00       -0.00005100     -0.00094741      0.00145540  
H      0.39880932     -2.49489805      3.42381258      3.47407001e+00    1.04650204e+01    1.37899284e+00       -0.00005136     -0.00107027      0.00147989  
H      0.47389212     -2.48361866      3.45775741      4.55337445e+00   -8.23439613e+00    8.61308565e+00       -0.00006990     -0.00116428      0.00159882  
H      0.54867610     -2.44209073      3.40536175      9.39299544e-01   -8.72851045e+00    4.85890298e+00       -0.00001759     -0.00087158      0.00120890  
H      0.60646869     -2.34875867      3.35254190     -2.55766853e+00    7.30512929e+00    6.87718874e+00        0.00002797     -0.00086456      0.00119864  
H      0.61162530     -2.54378810      3.41490752      2.48790587e+00   -6.56263218e-01   -8.50408468e-01        0.00005821     -0.00064164      0.00086742  
H      0.55671818     -2.53200457      3.35781547     -1.04129773e+01   -4.76299901e-01    1.56502608e+00        0.00002676     -0.00075094      0.00101662  
H      0.49812261     -2.54103591      3.26857316     -1.45271398e+01   -7.28485399e+00    1.97868127e+00        0.00004643     -0.00084378      0.00111317  
H      0.41702794     -2.55867303      3.20799126     -4.99854710e+00   -3.38555455e+00   -2.46350802e+00        0.00002657     -0.00087634      0.00113555  
H      0.49192579     -2.46178736      3.21136380     -9.57221867e+00    3.62642312e-01    8.20563097e+00        0.00009767     -0.00088323      0.00116285  
H      0.44197686     -2.44711113      3.24342165      6.72631911e+00   -5.19065870e+00    9.01914720e+00        0.00011730     -0.00091389      0.00123597  
H      0.39298135     -2.40017933      3.20869397      1.66236271e+00    9.93960838e-02    7.37248058e+00        0.00015422     -0.00103768      0.00147583  
H      0.47681778     -2.43408287      3.26373678     -7.10911893e+00   -9.18492738e+00    9.60014659e+00        0.00019042     -0.00097716      0.00136667  
H      0.52673487     -2.45507304      3.40204458     -4.79263785e+00   -6.28222697e-01   -8.34281110e+00        0.00016155     -0.00075495      0.00109338  
H      0.45715391     -2.35183216      3.48764062      7.13342894e+00    3.66050250e+00   -1.77119112e+00        0.00010279     -0.00073456      0.00113279  
H      0.49971468     -2.16674271      3.61644511      3.04997425e+00    1.76365302e+00    6.81271338e-01        0.00007769     -0.00076057      0.00132167  
H      0.47233725     -2.21686452      3.56584507      2.52072447e-01    7.68780483e+00   -4.46976935e+00        0.00014871     -0.00083701      0.00131978  
H      0.46188014     -2.20244452      3.51693649      7.01065070e+00    1.61574808e+01    4.74703819e+00        0.00014490     -0.00097513      0.00148588  
H      0.48834927     -2.21070214      3.46374996      1.44507621e+01   -4.20565271e+00   -8.15122572e-01        0.00015895     -0.00118170      0.00176541  
H      0.40237483     -2.18865716      3.49303770      6.79198234e+00    6.60317979e+00   -6.22590430e+00        0.00014885     -0.00116260      0.00180829  
H      0.42825830     -2.24904986      3.46433964      2.06538677e+00   -6.11726811e+00    3.87708398e+00        0.00017381     -0.00114494      0.00172258  
H      0.35136921     -2.12109185      3.45018866     -4.82053357e+00    1.10291724e+01    2.25747063e+00        0.00016731     -0.00120861      0.00184795  
H      0.36859566     -2.21954088      3.45698867      7.71435399e+00    6.32007398e+00   -8.11264267e+00        0.00017083     -0.00120247      0.00180048  
H      0.33701800     -2.35844122      3.47257186     -6.17037596e+00    7.57052899e+00    2.15706700e+00        0.00010241     -0.00090230      0.00133422  
H      0.38537678     -2.30332313      3.47258656     -9.96132257e+00   -8.54946575e+00   -1.50940336e+00        0.00011590     -0.00083391      0.00120942  
H      0.38653821     -2.27520181      3.44212585     -7.62267114e+00   -2.94914216e+00   -8.74623901e+00        0.00011895     -0.00097662      0.00145646  
H      0.47373178     -2.29744438      3.48722044      9.66286506e+00    9.18739494e+00   -1.19730858e+00        0.00013512     -0.00080134      0.00121620  
H      0.45618084     -2.41507712      3.49541384      2.43882562e+01    2.51527825e+00   -3.90796555e+00        0.00011054     -0.00081784      0.00122435  
H      0.44864340     -2.39334664      3.60263997      4.14253902e+00   -1.55380235e+00   -1.79111229e+01        0.00010125     -0.00076601      0.00117053  
H      0.53487775     -2.41870473      3.60472405      9.16230476e+00    1.04445926e+01    2.43753666e+00        0.00005236     -0.00061626      0.00095693  
