96
100000  xi=   0.76209040  Mean pot=  -106.21410907  Cent pot=  -108.95776621 kcal/mol
H     -0.09675077      0.26604316     -1.27311169     -4.36316618e+00   -4.53737120e+00   -1.13196419e+01       -4.49389902      7.90429150     -5.73565919  
H     -0.12085217      0.15755363     -1.16537376     -1.04040138e+01   -2.01796271e+00    3.49826537e+00       25.82746596    -59.15933820     50.17128596  
H     -0.08704974      0.21991128     -1.17452737     -1.06586400e+00   -3.20470625e+00    9.64084548e+00        4.70715759    -12.68478118     11.07125082  
H     -0.11619618      0.27379176     -1.12245192     -2.70631310e+00   -7.40276763e-01   -6.44626260e+00        4.94836976     -8.69827014     10.69333333  
H     -0.08380590      0.27911474     -1.10786879      8.52052699e-01    7.36002964e+00    1.52254133e+01        1.46906702     -2.56580574      3.59026778  
H     -0.16310341      0.41741653     -1.10062553     -3.56335139e+00    1.20083462e+01    1.10848885e+01        8.37037872    -18.87223001     29.72729402  
H     -0.13618889      0.57879511     -1.13567239      7.39708667e+00    5.97779536e-01    1.66864009e-01       14.84215908    -19.98934837     50.06461199  
H     -0.10465783      0.51392120     -1.16332183     -5.78926549e-01   -4.71211984e+00   -1.05110033e+01       15.85682011    -16.49259600     30.39856780  
H     -0.11810014      0.45157941     -1.09568080     -1.46256405e+00   -4.06530599e+00   -4.13383958e+00       26.29023110    -27.77441449     58.47783943  
H     -0.24189431      0.49985239     -1.09465821      1.06389542e+01   -1.63934950e+00   -5.77465590e+00       24.26852964    -22.58216015     42.04480203  
H     -0.30307660      0.37215274     -1.16491216      3.31627147e+00   -5.81224838e+00    2.46198696e+00       15.94997178    -31.88487744     35.59907371  
H     -0.44978402      0.45628657     -1.14021972     -3.42904239e+00    5.30765279e+00    4.36665597e+00        2.61149319    -16.37741616     22.41379777  
H     -0.44896711      0.42685647     -1.08152090     -7.56145901e-01   -2.40153645e+00   -1.52450621e+01        7.98649389    -15.03370052     21.67851593  
H     -0.53250333      0.41605434     -1.11014193     -3.08209727e+00   -8.28865441e+00   -4.71380091e+00        9.07210477    -23.91441387     40.40348286  
H     -0.62682355      0.34243737     -0.96362633     -1.46250881e+01    7.30398370e+00    5.51304236e+00        0.63134158    -54.41813635     88.76699304  
H     -0.53242797      0.36927450     -0.97873427      2.01757462e+00    7.77719825e+00    1.81719649e+01        3.49592114    -36.11994615     64.69328626  
H     -0.48187589      0.48055086     -0.99584782      6.27825050e+00   -1.58877622e+01   -4.11839596e-01        4.79267039    -30.35301238     65.57165558  
H     -0.48431397      0.44670101     -1.05778011      3.12929322e+00    1.22703833e+01   -8.69814348e+00       -3.22220883      8.99264311    -14.19198754  
H     -0.37207563      0.37777225     -1.00895904      2.80164960e+00   -6.02261929e+00   -3.75547707e+00        3.64994545     -4.95491226      8.29511171  
H     -0.37105556      0.43799699     -1.00259400     -7.24395554e+00    5.09057781e-01    5.05983006e+00       -9.94552105      5.29233563    -18.51714901  
H     -0.38409367      0.32524477     -1.02933801      1.08215678e+00   -4.00182860e+00    6.39445146e+00       -6.42595200      7.69820716    -10.62915801  
H     -0.48137954      0.26688344     -1.03757961     -5.18803036e+00    2.15495791e+00    1.59779829e-01       -6.47984341     45.79542238    -55.49993970  
H     -0.42457687      0.33458746     -1.02070272      1.72675040e-01   -3.03001981e+00   -2.31750471e+00        2.27763694     44.27841876    -67.99219090  
H     -0.38028492      0.30123015     -0.94253849     -3.36130662e+00    1.97191765e+00   -5.20869170e+00       -1.09409005    -31.55967312     39.64554935  
H     -0.15902580      0.26048881     -0.96303515     -9.52080871e+00   -4.63393859e+00    8.37174189e-01       22.78295215    -46.83301712     49.70927126  
H     -0.10734369      0.24845673     -1.11966838      5.15100973e+00    1.83686584e+00   -2.82615234e+00       25.02960739    -52.07222956     47.22901138  
H     -0.15736085      0.33934404     -1.11724700      1.73837289e+00   -2.39808923e+00    5.13953834e+00       25.70611583    -62.07395351     51.13672673  
H     -0.13741303      0.34638314     -1.05095167      6.90203957e+00   -8.33494636e+00    5.81147765e+00       24.38887682    -43.68986801     54.42581985  
H     -0.07039881      0.30236274     -1.17466559      4.66057858e+00    9.54839392e+00    1.01229704e+01       33.78926889    -37.53228249     34.13717228  
H     -0.00666137      0.25576777     -1.16447195      5.31281856e+00    1.95788856e+01   -1.05110061e+01       25.44541890    -23.28258306     21.42648876  
H     -0.00437030      0.18929735     -1.24440194      5.11023969e+00   -3.90112220e+00   -2.40097268e+00       61.09250416    -56.50981682     20.88141395  
H     -0.05783135      0.19146476     -1.36142806      9.83755754e+00   -1.66899309e+00   -4.75090717e+00       23.59888008    -25.55620844      7.75086264  
H     -0.40171211      0.80247304     -1.66164273      1.06674683e+01    3.81466953e+00    1.66922282e+00        4.49087630     -7.89948473      5.72170790  
H     -0.40588164      0.81040548     -1.71911953     -9.72562566e+00   -4.12739634e+00    2.87651033e+00      -25.83182098     59.16575243    -50.18831637  
H     -0.29283628      0.77428472     -1.65882552     -1.30582232e+01   -9.38250101e-01   -1.64505980e+01       -4.71138850     12.69145797    -11.08886874  
H     -0.37300670      0.72524363     -1.67787318      4.94875732e+00    3.41658725e+00   -6.47855561e+00       -4.95281736      8.70679160    -10.71407101  
H     -0.31955850      0.69091336     -1.68528072     -2.62405674e+00   -1.23134282e+00    2.93291806e+00       -1.47349887      2.57386794     -3.61030061  
H     -0.34651566      0.83090171     -1.75203239      2.39273568e+00   -2.10533255e+00    3.50387077e+00       -8.37531579     18.88047684    -29.74616869  
H     -0.35670351      0.87579519     -1.87951104     -4.27938306e-01   -7.92480484e+00    3.87891435e+00      -14.84704151     19.99730865    -50.08257305  
H     -0.43645118      0.85906922     -1.79952058      4.96529717e+00   -6.89437899e+00    3.26117937e+00      -15.86098091     16.50000001    -30.41425574  
H     -0.44348518      0.79535269     -1.81948260     -1.17454819e+01    1.05337179e+00   -4.92911918e+00      -26.29521762     27.78295503    -58.49614885  
H     -0.61610848      0.84810023     -1.74305982     -1.07345619e+01   -9.35143038e-01   -5.66836293e-01      -24.27433529     22.59177670    -42.06420678  
H     -0.56240082      0.89054101     -1.74377554     -1.71884408e+00    3.87579805e+00    3.51247046e+00      -15.95587456     31.89506150    -35.61993266  
H     -0.52289470      0.91415463     -1.76699113      5.20787778e-01    9.64099506e-01    1.23945854e+01       -2.61797136     16.38686896    -22.43378893  
H     -0.67472023      0.85175065     -1.69435402      5.84937489e+00   -3.62880803e+00   -6.97730443e+00       -7.99335925     15.04350618    -21.69966571  
H     -0.68697709      0.82317094     -1.79801573     -8.20718452e+00    1.25368357e+00   -1.41601867e+01       -9.07905797     23.92404712    -40.42494034  
H     -0.63313642      0.88650032     -1.85110371     -4.54918190e+00    2.02998204e+01   -2.82642478e+00       -0.63828632     54.42853328    -88.78903059  
H     -0.57380121      0.79644012     -1.74383777      3.42066549e+00   -7.08764312e+00    3.38956965e+00       -3.50229812     36.12850655    -64.71253436  
H     -0.53961386      0.84606269     -1.78547195     -1.30355826e+01   -2.22794944e+00   -1.25828626e+00       -4.79800601     30.36064306    -65.58955841  
H     -0.62027218      0.82652217     -1.65688296     -1.13647482e+01   -1.13407115e+01    1.36832818e+01        3.21694835     -8.98690103     14.17543360  
H     -0.63864911      0.73960550     -1.61518649     -8.58967022e+00   -9.98578470e+00    5.73428542e+00       -3.65565918      4.96187509     -8.31457086  
H     -0.70040287      0.61311541     -1.61549622     -7.47278853e+00   -6.77260605e+00   -3.84950267e+00        9.93954003     -5.28481251     18.49671230  
H     -0.70304116      0.70735870     -1.55642539     -2.22911331e+00   -2.41575999e+00   -1.14320873e+01        6.41925480     -7.69060504     10.60735726  
H     -0.54165153      0.69324690     -1.55415981      5.08471122e+00    2.91629643e+00    1.02400891e+01        6.47326740    -45.78865292     55.47840666  
H     -0.40582930      0.69780666     -1.57835676      8.78528118e+00    8.36034134e+00   -1.25788424e+01       -2.28420422    -44.27083762     67.97064601  
H     -0.36265717      0.81162675     -1.58384178      9.51349111e+00    1.77634132e+01    6.68899085e+00        1.08724885     31.56927307    -39.67257599  
H     -0.43459320      0.82693613     -1.56434977      1.00547513e+01    1.20426733e+01   -5.21795251e+00      -22.78936382     46.84345905    -49.73618937  
H     -0.40202828      0.86152149     -1.67579957      8.91445839e+00   -7.25570125e+00    4.31750647e+00      -25.03432974     52.08130933    -47.25163282  
H     -0.43513414      1.01008239     -1.66987812      2.94269590e+00   -9.18550275e+00   -1.69095060e+01      -25.71120253     62.08318621    -51.15868086  
H     -0.42655386      0.86434429     -1.69624517     -5.79671211e+00   -1.00697604e+01    2.15555259e+00      -24.39426148     43.69921843    -54.44881697  
H     -0.53717125      0.82086339     -1.64639237     -5.31834690e+00    1.40570897e+01    7.97108601e+00      -33.79435072     37.54026265    -34.15849687  
H     -0.50834533      0.71486767     -1.58717639      2.96766359e-01   -1.12969260e+00    6.66095827e+00      -25.44995949     23.29069208    -21.44772620  
H     -0.65787499      0.79380925     -1.46793278      1.03194267e+01    9.17897470e-01    4.76335092e-01      -61.09701925     56.51741210    -20.90280153  
H     -0.58229718      0.75946238     -1.53397695     -1.04494969e+00    1.74434914e+00    3.69616166e+00      -23.60255216     25.56185621     -7.76744922  
H      0.83856992     -1.22223299      3.02568427      1.76340243e+01    7.13658922e+00   -1.06898014e+00        0.00302272     -0.00480677      0.01395130  
H      0.88426134     -1.23811663      2.96896946     -3.01081181e+00   -9.64787288e+00   -4.05383321e+00        0.00435502     -0.00641422      0.01703041  
H      0.87472433     -1.26536493      2.88312832      5.15510383e+00    2.08479348e+01    3.23706541e+00        0.00423091     -0.00667678      0.01761792  
H      0.68824236     -1.27582204      2.76017291      3.42477881e+00    1.03255637e+01    1.48520052e+00        0.00444759     -0.00852146      0.02073769  
H      0.76336910     -1.26456751      2.79417552      4.49842536e+00   -8.35664843e+00    8.70230783e+00        0.00443184     -0.00806221      0.02003284  
H      0.83804057     -1.22283879      2.74169509      8.83446988e-01   -8.88263836e+00    4.95799709e+00        0.00493707     -0.00824683      0.01887467  
H      0.89584855     -1.12972597      2.68879906     -2.60697140e+00    7.19627903e+00    6.97897445e+00        0.00488243     -0.00796028      0.01796106  
H      0.90096635     -1.32463654      2.75132903      2.43071416e+00   -8.05391204e-01   -7.67351899e-01        0.00416080     -0.00740401      0.01568793  
H      0.84597510     -1.31290169      2.69405501     -1.04583768e+01   -5.91562617e-01    1.67204997e+00        0.00498652     -0.00854054      0.01830942  
H      0.78745557     -1.32198471      2.60489195     -1.45861910e+01   -7.41650327e+00    2.05714399e+00        0.00580565     -0.00961655      0.01940476  
H      0.70629490     -1.33940656      2.54418864     -5.04830597e+00   -3.51708550e+00   -2.36001297e+00        0.00590278     -0.01018406      0.02085895  
H      0.78124516     -1.24269735      2.54749156     -9.62906034e+00    2.40115691e-01    8.29804474e+00        0.00647818     -0.00945280      0.01999116  
H      0.73132448     -1.22786321      2.57960390      6.66623785e+00   -5.33851241e+00    9.11144943e+00        0.00686536     -0.00980565      0.02114978  
H      0.68231515     -1.18103060      2.54475357      1.61695119e+00   -2.11427613e-02    7.46868108e+00        0.00695320     -0.00963325      0.02145748  
H      0.76625012     -1.21496897      2.60000586     -7.17508144e+00   -9.32460712e+00    9.68721382e+00        0.00694474     -0.01039693      0.02203755  
H      0.81612156     -1.23587774      2.73830391     -4.84111502e+00   -7.58236954e-01   -8.23891295e+00        0.00637699     -0.00856039      0.01924810  
H      0.74665044     -1.13287731      2.82397794      7.06954193e+00    3.51453866e+00   -1.67932193e+00        0.00533562     -0.00763068      0.01790283  
H      0.78920945     -0.94762080      2.95291892      2.99783770e+00    1.62828277e+00    7.76036041e-01        0.00526048     -0.00574208      0.01655394  
H      0.76180557     -0.99791499      2.90223594      1.98490427e-01    7.54946055e+00   -4.38142104e+00        0.00571373     -0.00696283      0.01945916  
H      0.75142057     -0.98354203      2.85350681      6.94762566e+00    1.60183020e+01    4.84131279e+00        0.00598102     -0.00752313      0.02043671  
H      0.77776084     -0.99173443      2.80025348      1.43995897e+01   -4.34762464e+00   -7.25084039e-01        0.00669720     -0.00760212      0.02180076  
H      0.69184546     -0.96996501      2.82963551      6.72853243e+00    6.45944991e+00   -6.13439934e+00        0.00657600     -0.00676946      0.02153304  
H      0.71768357     -1.03024749      2.80101928      2.01835350e+00   -6.25134297e+00    3.96248310e+00        0.00656728     -0.00758114      0.02154488  
H      0.64075270     -0.90249151      2.78683392     -4.88006335e+00    1.08793444e+01    2.35067099e+00        0.00684120     -0.00959995      0.02702664  
H      0.65801677     -1.00094048      2.79386350      7.66265472e+00    6.19468782e+00   -8.02180822e+00        0.00641168     -0.01044194      0.02691811  
H      0.62636877     -1.13976566      2.80928160     -6.22177519e+00    7.41082780e+00    2.25081638e+00        0.00472235     -0.00907977      0.02262143  
H      0.67480842     -1.08476210      2.80935383     -1.00116598e+01   -8.67545143e+00   -1.41124094e+00        0.00508670     -0.00923270      0.02195413  
H      0.67594674     -1.05642377      2.77889807     -7.67260482e+00   -3.09349299e+00   -8.66247353e+00        0.00538466     -0.00935042      0.02299712  
H      0.76316652     -1.07882945      2.82384715      9.60945314e+00    9.04846455e+00   -1.09185093e+00        0.00508184     -0.00798016      0.02132458  
H      0.74567917     -1.19632292      2.83216186      2.43352148e+01    2.38200800e+00   -3.81859896e+00        0.00454060     -0.00810903      0.02123744  
H      0.73805433     -1.17449200      2.93923480      4.08575241e+00   -1.71698162e+00   -1.78072672e+01        0.00451510     -0.00759527      0.02138758  
H      0.82437437     -1.19993600      2.94138495      9.11198370e+00    1.03229180e+01    2.53578702e+00        0.00367209     -0.00564777      0.01658658  
