96
100000  xi=   0.27868648  Mean pot=  -104.86231603  Cent pot=  -108.77396794 kcal/mol
H      1.76732382      3.51252545     -1.20059662      4.10794648e+00   -1.07123382e+01   -4.95963221e+00       11.66999707      4.56242651    -43.65859450  
H      1.73951803      3.48254846     -1.19724042     -2.19553890e+01    2.75751632e+00    2.58021733e+00       13.63803230      9.20885199    -62.04045751  
H      1.77588152      3.47265227     -1.13815943     -8.41337793e+00   -2.55311075e+00   -1.33080723e+01        2.57327837      1.83266539    -18.22723318  
H      1.72003561      3.43667448     -1.16090624      5.57413445e+00    8.81472657e+00   -8.23200275e-01        7.41237784     -0.07933414    -59.30631694  
H      1.90567857      3.41710041     -1.14680852     -3.10477376e+00    3.10598006e+00    4.64623600e+00       35.16278556     -1.01339213    -73.26273591  
H      1.79301733      3.56690513     -1.17148734     -2.92808598e+00    9.07891313e+00    6.07865062e+00       20.03140520      0.73650354    -59.34243864  
H      1.78814697      3.66102714     -1.25406883      1.34501770e+01    3.87538026e+00    8.01141919e+00       17.49122270     -0.57200087    -57.62097217  
H      1.80471912      3.63526343     -1.30009474      6.26703267e+00   -6.51316504e+00   -1.00722385e+01       32.66770009      2.21927330    -95.18624450  
H      1.84976388      3.54907114     -1.23594390     -1.41211834e+01    7.77970565e+00   -7.35733589e+00       43.28755631     -2.40910292    -86.14979682  
H      1.73001501      3.55021789     -1.18062922     -4.88236204e+00    8.36070608e-01   -4.86614643e+00       49.08546527    -12.23573908    -83.09442011  
H      1.68723575      3.52172832     -1.26597951     -5.88799500e+00   -2.29169536e+00    6.34581958e+00       41.63266613     -9.51152052    -93.74714427  
H      1.65658747      3.66807843     -1.19704148     -1.54229793e+00    6.87252481e+00    1.18936234e+01       43.65558982      8.54522864    -75.58355312  
H      1.59218213      3.65503291     -1.04142459     -6.72203758e+00   -1.68046341e+00   -1.24254376e+01       24.21942397      7.81787623    -30.98634850  
H      1.62575685      3.69484879     -1.05370623     -6.59941049e+00   -8.81689247e+00   -1.59294840e+01       52.82184681     22.48294590    -41.72976546  
H      1.57028471      3.70973341     -0.97155005     -3.86404518e+00    1.89206910e+01    6.63860593e+00       24.91071042     13.63917417    -19.02370377  
H      1.63293773      3.62672730     -0.89734027      3.53090562e-02    2.17752316e+00    5.02038935e+00      -30.16110147    -11.70230829     21.13812627  
H      1.62836838      3.76310358     -0.97684373     -4.13361305e+00   -6.87553537e+00    2.64379527e+00       -2.00530361     -1.43521341      2.14056200  
H      1.64361474      3.67235418     -0.90969896     -4.18731790e+00    5.79377705e+00    2.67398881e+00       -7.83811148     -2.71257978      5.75606050  
H      1.58660799      3.59983628     -1.01422032      6.78181905e-01   -1.21394741e+01   -8.85036472e+00       23.48334243     13.54838959    -46.85005451  
H      1.63352791      3.64238439     -0.93810808     -1.17288404e+01   -4.44927755e+00   -5.66983672e+00       38.06511159     26.58088123    -42.23418500  
H      1.61863985      3.54185033     -0.96158181      2.35704293e+00   -2.20612794e+00    2.40089242e+00       35.13985450     12.37570398    -45.67279085  
H      1.56304834      3.38265061     -0.93352083      4.37115498e-01    1.07890389e+01    5.13394243e+00      -33.83404890      7.29690835     61.28057615  
H      1.56315715      3.39046605     -0.95075231     -2.96875068e+00    1.02527004e+00   -2.65904084e-01      -24.26592566     23.31520295    113.19976418  
H      1.61656956      3.41477447     -0.92057582      8.89757965e+00    1.81716169e+00    1.78688768e+00      -19.16612371     20.09112193     79.52674149  
H      1.78634046      3.40583357     -0.93824945     -3.24901660e-01    3.88543931e-01    1.22367534e+00        6.08853029     -2.68672872    -11.79111559  
H      1.86168480      3.42074423     -1.03061401      9.12389692e+00   -5.25670504e-01    4.49778900e+00      -10.16286440      3.57593152     14.39734478  
H      1.78917348      3.52881850     -1.06731022      7.98620324e+00   -1.00468915e+01   -3.23326927e+00        7.42597558     -3.57976509    -14.15749989  
H      1.84828321      3.46677804     -1.05571348      1.15048704e+00   -5.58107474e+00    1.06602174e+01       26.60909200     -9.29844009    -41.30723889  
H      1.77643917      3.36213611     -1.16824611     -2.32615983e+00    6.71799384e+00    1.60563608e+01       32.11625433    -26.23877345    -79.22013469  
H      1.83704313      3.32138709     -1.02858355      4.59017486e+00    1.19838551e+01   -1.68270034e+00        1.22114553     -0.68057708     -2.07062914  
H      1.80108585      3.35807996     -1.06175999      1.14003135e+00    2.33977135e-01   -6.29193274e+00       34.43320643    -11.13972008    -56.66005454  
H      1.78182062      3.36415923     -1.17660808      8.72337318e-01   -6.04543688e-01    8.07991460e-01       30.37260765     -7.83785954    -61.71703705  
H      1.55934383      3.43121499     -0.42252313      3.00156183e+00    1.20708756e+01   -5.59466911e+00      -11.66999371     -4.56241885     43.65859270  
H      1.55892921      3.36060893     -0.37572790      2.63236937e+00   -6.79527770e+00    2.91829977e+00      -13.63802881     -9.20884398     62.04045569  
H      1.66936337      3.39679112     -0.38366189     -4.90337759e+00    5.07317100e-01    5.59106194e+00       -2.57327493     -1.83265761     18.22723149  
H      1.61594045      3.43778865     -0.32804236     -2.52200769e+00   -4.03490613e+00   -1.29987883e+01       -7.41237441      0.07934172     59.30631539  
H      1.51607956      3.42832870     -0.33506707      2.14510640e+00    5.14429523e+00    1.26092335e+01      -35.16278208      1.01339987     73.26273431  
H      1.52242373      3.55695614     -0.36986184      2.56449553e+00    2.91907159e+00    7.60826276e+00      -20.03140188     -0.73649591     59.34243708  
H      1.54405051      3.66900968     -0.44994685     -5.66868325e+00   -9.07134882e+00   -4.86128026e+00      -17.49121941      0.57200853     57.62097059  
H      1.47914276      3.61314550     -0.35143930     -1.06987658e+00   -2.99202670e+00    1.91126015e+00      -32.66769709     -2.21926617     95.18624304  
H      1.41364660      3.57334261     -0.36799431      1.72645190e+00   -8.66398751e+00   -2.60202694e+00      -43.28755316      2.40911031     86.14979535  
H      1.23694566      3.67312739     -0.34593586      5.59548646e+00   -1.29747942e+00   -2.38841861e+00      -49.08546217     12.23574650     83.09441872  
H      1.27225441      3.61653620     -0.33153740      8.29783382e+00    2.47299363e+00   -1.26983490e+00      -41.63266299      9.51152792     93.74714290  
H      1.19574629      3.57787252     -0.39915934     -5.60856786e-01    1.51544709e+00    3.96373941e+00      -43.65558657     -8.54522078     75.58355167  
H      1.10911476      3.49910189     -0.42338784      1.26227581e+01   -2.24670592e+00   -1.06994042e+01      -24.21942058     -7.81786801     30.98634701  
H      0.97983900      3.41992212     -0.54342493     -3.87675285e+00    3.90250689e+00   -3.85224311e+00      -52.82184326    -22.48293726     41.72976387  
H      0.99481407      3.39465035     -0.53207711     -1.45077041e+01    1.07893067e+01   -4.85502745e+00      -24.91070691    -13.63916540     19.02370214  
H      1.08593557      3.41449402     -0.51397892      6.21504113e+00    6.30033939e-01    1.56412498e+01       30.16110493     11.70231683    -21.13812795  
H      1.17532527      3.43885623     -0.49324284     -1.82447255e+00   -9.14783411e+00   -5.21625887e+00        2.00530711      1.43522182     -2.14056372  
H      1.07694248      3.47624249     -0.49355284     -3.23352491e+00   -2.74712870e+00    1.40882543e+00        7.83811535      2.71258909     -5.75606255  
H      1.22787573      3.39287070     -0.29853741     -5.66125127e+00   -1.76760952e+00    9.91436093e+00      -23.48333845    -13.54838028     46.85005257  
H      1.12017897      3.28391267     -0.36853470     -2.18228652e+00    2.93833105e-01    5.98411586e+00      -38.06510737    -26.58087125     42.23418299  
H      1.11935976      3.36601178     -0.31264584     -2.69553292e+00   -2.10696333e+00   -8.35447036e+00      -35.13985034    -12.37569414     45.67278890  
H      1.23906159      3.45252401     -0.34671272      2.60495260e-01   -3.62124340e+00    4.36430159e+00       33.83405315     -7.29689871    -61.28057816  
H      1.43151684      3.51694876     -0.33665450      1.27455597e+01    6.42303706e+00   -1.55448729e+01       24.26592968    -23.31519391   -113.19976604  
H      1.46559961      3.57303050     -0.29415039     -1.94574799e+00    2.00066426e+01   -1.21410724e+00       19.16612794    -20.09111273    -79.52674336  
H      1.44507453      3.55642668     -0.27734989      1.67608269e+00    9.14431271e+00   -6.50555161e+00       -6.08852630      2.68673737     11.79111385  
H      1.45401742      3.56418695     -0.45308715      5.74948032e+00   -2.80922771e+00   -3.91721982e+00       10.16286797     -3.57592378    -14.39734642  
H      1.44341722      3.69549394     -0.40813150     -2.48975556e+00    5.79421795e-01   -9.43004364e+00       -7.42597213      3.57977277     14.15749828  
H      1.41281939      3.61894920     -0.37971112      7.69923822e-01   -1.07170953e+01   -3.61000019e+00      -26.60908832      9.29844818     41.30723722  
H      1.44114716      3.63606759     -0.34119202      2.47483317e+00    1.89871273e+01    1.14502221e+00      -32.11625062     26.23878176     79.22013289  
H      1.47306615      3.52424267     -0.41140720      1.83500987e+00    8.58095794e+00   -3.07039762e+00       -1.22114190      0.68058512      2.07062743  
H      1.36181194      3.50019250     -0.33893202      1.50912697e+01   -1.13802774e+00    3.46809151e+00      -34.43320280     11.13972824     56.66005275  
H      1.40319398      3.46186648     -0.40723999      8.73656262e+00    2.80114106e+00   -2.75582671e+00      -30.37260408      7.83786773     61.71703518  
H     -2.98657427     -7.09748133      1.71407974      1.68299972e+01    5.05742836e+00   -1.67698343e-01       -0.00000336     -0.00000766      0.00000180  
H     -2.94087773     -7.11327537      1.65744368     -3.82105483e+00   -1.17588826e+01   -3.17750492e+00       -0.00000348     -0.00000801      0.00000182  
H     -2.95046273     -7.14065400      1.57156795      4.35261815e+00    1.87543679e+01    4.14680782e+00       -0.00000343     -0.00000778      0.00000169  
H     -3.13688519     -7.15122003      1.44884510      2.61066082e+00    8.21948629e+00    2.37816947e+00       -0.00000344     -0.00000758      0.00000155  
H     -3.06178276     -7.13997633      1.48284943      3.68861852e+00   -1.04775631e+01    9.60967178e+00       -0.00000348     -0.00000774      0.00000160  
H     -2.98702219     -7.09839859      1.43042442      7.66501897e-02   -1.09761625e+01    5.85655763e+00       -0.00000332     -0.00000764      0.00000155  
H     -2.92920761     -7.00513680      1.37762017     -3.42222652e+00    5.06214229e+00    7.87557505e+00       -0.00000329     -0.00000766      0.00000158  
H     -2.92405796     -7.20009764      1.44000110      1.62453898e+00   -2.90302336e+00    1.45489481e-01       -0.00000300     -0.00000713      0.00000146  
H     -2.97896558     -7.18834822      1.38287347     -1.12764482e+01   -2.72224614e+00    2.56468758e+00       -0.00000315     -0.00000739      0.00000147  
H     -3.03754613     -7.19739320      1.29368596     -1.53916230e+01   -9.52822126e+00    2.97479329e+00       -0.00000309     -0.00000743      0.00000139  
H     -3.11866422     -7.21498614      1.23306237     -5.86144840e+00   -5.63407405e+00   -1.46538413e+00       -0.00000314     -0.00000740      0.00000137  
H     -3.04374317     -7.11817663      1.23646049     -1.04362447e+01   -1.87873356e+00    9.20373896e+00       -0.00000325     -0.00000786      0.00000145  
H     -3.09370838     -7.10343276      1.26853185      5.86294367e+00   -7.43807468e+00    1.00147492e+01       -0.00000339     -0.00000822      0.00000150  
H     -3.14270439     -7.05653708      1.23376400      7.98937218e-01   -2.14510640e+00    8.37323380e+00       -0.00000355     -0.00000864      0.00000159  
H     -3.05885432     -7.09043827      1.28885113     -7.97365863e+00   -1.14287956e+01    1.05947278e+01       -0.00000351     -0.00000878      0.00000162  
H     -3.00896165     -7.11138494      1.42710037     -5.65488745e+00   -2.87619499e+00   -7.34327232e+00       -0.00000346     -0.00000854      0.00000167  
H     -3.07851930     -7.00819948      1.51271461      6.26911627e+00    1.42011828e+00   -7.74383704e-01       -0.00000350     -0.00000841      0.00000172  
H     -3.03597591     -6.82303382      1.64150845      2.18684873e+00   -4.85281794e-01    1.67829049e+00       -0.00000387     -0.00000931      0.00000205  
H     -3.06334674     -6.87320255      1.59087693     -6.11306842e-01    5.44454439e+00   -3.46909348e+00       -0.00000399     -0.00000931      0.00000195  
H     -3.07379614     -6.85875644      1.54201069      6.14644392e+00    1.39127656e+01    5.74156246e+00       -0.00000422     -0.00000998      0.00000201  
H     -3.04734430     -6.86698527      1.48876990      1.35885933e+01   -6.45279580e+00    1.86355937e-01       -0.00000416     -0.00000984      0.00000195  
H     -3.13329289     -6.84499253      1.51809157      5.92737406e+00    4.36146181e+00   -5.22948907e+00       -0.00000425     -0.00000963      0.00000201  
H     -3.10743030     -6.90530387      1.48937775      1.20241043e+00   -8.36624853e+00    4.87595183e+00       -0.00000402     -0.00000904      0.00000186  
H     -3.18430513     -6.77739699      1.47519940     -5.68432082e+00    8.78719602e+00    3.25650275e+00       -0.00000423     -0.00000920      0.00000186  
H     -3.16707235     -6.87581092      1.48203426      6.85017319e+00    4.07359705e+00   -7.11694381e+00       -0.00000399     -0.00000866      0.00000174  
H     -3.19866718     -7.01470279      1.49756785     -7.03298441e+00    5.32552486e+00    3.15702488e+00       -0.00000357     -0.00000774      0.00000164  
H     -3.15028574     -6.95963930      1.49762588     -1.08263077e+01   -1.07923337e+01   -5.14051791e-01       -0.00000346     -0.00000768      0.00000162  
H     -3.14914690     -6.93145405      1.46714688     -8.48560372e+00   -5.19740003e+00   -7.74747620e+00       -0.00000368     -0.00000808      0.00000167  
H     -3.06194124     -6.95376515      1.51223688      8.79881409e+00    6.94521410e+00   -2.00002027e-01       -0.00000371     -0.00000831      0.00000180  
H     -3.07949353     -7.07135638      1.52046735      2.35245105e+01    2.69766377e-01   -2.91236208e+00       -0.00000363     -0.00000804      0.00000171  
H     -3.08704305     -7.04963463      1.62764396      3.28017422e+00   -3.79816090e+00   -1.69125384e+01       -0.00000362     -0.00000816      0.00000180  
H     -3.00078802     -7.07503406      1.62977871      8.29735399e+00    8.20163276e+00    3.43313151e+00       -0.00000357     -0.00000818      0.00000187  
