3
100000  xi=   0.36139982  Mean pot=  -107.21541613  Cent pot=  -109.46813672 kcal/mol
H      1.06284218      3.12632566     -1.06765449       0.20805539
H      0.56786115      3.06087169     -1.62752594       0.19316998
H     -1.63070334     -6.18719735      2.69518044       0.19079098
3
200000  xi=   0.35292607  Mean pot=  -106.52264206  Cent pot=  -109.09806296 kcal/mol
H     -1.65094626     -2.46110253     -2.56114144       0.19732392
H     -1.14692726     -2.18469439     -2.04318301       0.16606678
H      2.79787351      4.64579692      4.60432444       0.21126597
3
300000  xi=   0.36044209  Mean pot=  -106.99773526  Cent pot=  -109.49485175 kcal/mol
H     -1.66434980     -2.69162189     -1.63716305       0.18340897
H     -1.39524867     -2.26293647     -2.17558335       0.16912956
H      3.05959848      4.95455836      3.81274640       0.24278679
3
400000  xi=   0.35806673  Mean pot=  -105.64088591  Cent pot=  -109.49721857 kcal/mol
H     -0.16411862     -1.84770907      3.18829165       0.24901639
H     -0.39046350     -1.14283011      3.12780248       0.18510544
H      0.55458212      2.99053918     -6.31609414       0.24459599
3
500000  xi=   0.35824394  Mean pot=  -106.88447853  Cent pot=  -109.23820024 kcal/mol
H     -1.34832556     -2.93958763     -0.76423995       0.12780766
H     -1.24605188     -3.19131212     -1.42803950       0.18179051
H      2.59437745      6.13089974      2.19227945       0.22320699
3
600000  xi=   0.36836548  Mean pot=  -106.91200805  Cent pot=  -109.49776717 kcal/mol
H     -3.48385975      0.15618055      1.39498984       0.17000785
H     -2.83917583      0.52163200      1.37218283       0.18224465
H      6.32303558     -0.67781255     -2.76717267       0.15312936
3
700000  xi=   0.35463963  Mean pot=  -107.33454161  Cent pot=  -108.63585075 kcal/mol
H      2.75629067      2.16169785     -1.23461945       0.13600084
H      2.41821636      2.22978190     -0.62758533       0.20458186
H     -5.17450703     -4.39147975      1.86220477       0.19570298
3
800000  xi=   0.35962884  Mean pot=  -105.14398688  Cent pot=  -109.37524192 kcal/mol
H      0.34107557     -0.93108733     -3.38652711       0.22040346
H      0.00381964     -0.29310124     -3.45349231       0.12840737
H     -0.34489521      1.22418858      6.84001942       0.17931401
3
900000  xi=   0.36290181  Mean pot=  -106.83531424  Cent pot=  -109.42698635 kcal/mol
H      0.14638071      2.62106408     -2.60221045       0.17244025
H     -0.42605684      2.14476432     -2.47848765       0.18745252
H      0.27967613     -4.76582840      5.08069810       0.17364061
3
1000000  xi=   0.35572795  Mean pot=  -107.22762813  Cent pot=  -107.67142548 kcal/mol
H      0.83987962     -2.32723792     -2.07735364       0.21783601
H      1.32007224     -2.61650346     -2.46165500       0.18604405
H     -2.15995186      4.94374138      4.53900864       0.15925402
3
1100000  xi=   0.36069671  Mean pot=  -107.70849511  Cent pot=  -108.52503793 kcal/mol
H      2.31903122      1.53252140      2.01878416       0.24916757
H      2.08545665      1.21761037      2.59333108       0.12279889
H     -4.40448787     -2.75013176     -4.61211524       0.15608524
3
1200000  xi=   0.36183489  Mean pot=  -106.64386231  Cent pot=  -105.71685423 kcal/mol
H     -1.87384227      2.36963624     -1.29785045       0.22568593
H     -2.28192891      2.27445075     -1.80127815       0.18067351
H      4.15577118     -4.64408699      3.09912860       0.18786677
3
1300000  xi=   0.35452590  Mean pot=  -107.17193001  Cent pot=  -109.09511099 kcal/mol
H      1.83444032     -1.93447814     -2.72235600       0.17186928
H      1.53967457     -2.08530533     -2.02287649       0.16195004
H     -3.37411490      4.01978346      4.74523249       0.14825163
3
1400000  xi=   0.36362704  Mean pot=  -107.61233249  Cent pot=  -108.54657908 kcal/mol
H      2.94593362      1.44034043      0.57052968       0.22157600
H      2.93218679      1.82398737      1.15116276       0.15993280
H     -5.87812040     -3.26432780     -1.72169243       0.22649435
3
1500000  xi=   0.36508444  Mean pot=  -107.09068499  Cent pot=  -109.42049785 kcal/mol
H      2.12831191     -2.39039856     -1.39925222       0.21670537
H      2.52917263     -2.21944367     -0.78212181       0.18658068
H     -4.65748454      4.60984223      2.18137403       0.21560321
3
1600000  xi=   0.35007407  Mean pot=  -106.14377842  Cent pot=  -109.33838338 kcal/mol
H      3.04046748     -2.00878101     -0.44380695       0.20349088
H      3.01357228     -1.65801706      0.23175002       0.20295425
H     -6.05403976      3.66679806      0.21205693       0.17706509
3
1700000  xi=   0.36143849  Mean pot=  -107.38876183  Cent pot=  -109.40182092 kcal/mol
H      0.07066163      2.99133773      2.30228192       0.19717923
H     -0.09407470      2.80345428      1.61994168       0.17759244
H      0.02341307     -5.79479201     -3.92222361       0.30263817
3
1800000  xi=   0.35812041  Mean pot=  -105.89303268  Cent pot=  -109.42203575 kcal/mol
H     -0.10450420      0.58288072     -3.80190057       0.17267242
H     -0.07096053      0.17609384     -3.19872498       0.17524746
H      0.17546473     -0.75897456      7.00062555       0.16119845
3
1900000  xi=   0.36804936  Mean pot=  -106.09937569  Cent pot=  -109.41903366 kcal/mol
H      3.35388248     -0.22046708     -0.52082853       0.16612701
H      3.46681759      0.47564325     -0.33993622       0.24699500
H     -6.82070007     -0.25517617      0.86076475       0.21682894
3
2000000  xi=   0.36087842  Mean pot=  -107.61986411  Cent pot=  -109.46973796 kcal/mol
H     -0.06584208      2.80146618     -1.62859178       0.16572300
H      0.15455803      3.48206293     -1.46674874       0.21510831
H     -0.08871595     -6.28352912      3.09534052       0.23219703
