96
100000  xi=   0.26837932  Mean pot=  -106.40533180  Cent pot=  -109.49119174 kcal/mol
H      1.94383736      3.09004662     -0.69351255      6.61649122e+00    9.27828379e-01    2.28833219e+00        9.66774068    -41.03040247     -4.99604805  
H      1.85839542      3.10575546     -0.65254022     -4.44279189e+00   -4.27653349e-01   -1.31043382e+00       -6.50945131    103.91169095     10.12372910  
H      1.90103653      3.02494497     -0.66390861     -6.67345946e+00    7.05229959e-01    8.47471303e+00       -1.55072666    -61.09889443    -10.02575961  
H      1.83200577      3.01977499     -0.79220857      1.19978312e+01    4.92591312e+00    2.38852946e+00       -4.86861237    -82.86766065    -41.63378419  
H      1.87300037      3.02269664     -0.75658912     -7.40973810e-01    3.35119304e+00    5.36163360e+00       -4.75067779    -71.89136010    -31.99233241  
H      1.83446847      3.19788345     -0.72609094      3.78032043e+00    8.90404274e+00    3.31358062e+00       -0.88553285    -26.91913756     -8.76872920  
H      1.91183349      3.26212013     -0.76953594      2.88228520e+00   -2.25976065e+00    3.06919107e+00        8.28162965    -59.76203311    -12.09427292  
H      2.00418973      3.24248581     -0.75785247      1.86403550e+00   -3.95283457e+00   -1.56809081e+01       28.85796276    -64.69417194    -16.22689116  
H      2.02528425      3.17502770     -0.62891328      6.18181110e-01    5.58468366e+00   -1.06877862e+01       35.58134235    -68.31261791      1.33604650  
H      1.89093018      3.26508162     -0.62579859     -1.78219599e+00    5.73980279e-01   -6.30467684e+00       29.80431027    -48.20458096     -3.80180341  
H      1.75566614      3.19320324     -0.72991696     -6.72823373e+00   -7.35138300e-02   -1.98627209e-01        9.63227324    -42.37593671    -10.68909677  
H      1.62870893      3.23772054     -0.68733244      6.79740246e+00    5.45641430e+00    1.41158949e+01        1.21759964    -35.18956129     -4.90137051  
H      1.57009564      3.24720276     -0.61677433     -1.32785859e-01   -8.96783590e+00   -1.33976640e+01       -5.24427888     57.92803496      8.55642790  
H      1.58361435      3.22860460     -0.61882961     -2.23617850e+00   -2.25074420e-01   -8.33142473e+00      -11.52956164     42.10211316     -1.80269077  
H      1.60989268      3.25046483     -0.57732190     -1.22346207e+01    1.63051933e+01    9.07170145e+00      -27.52722710     61.37518627     -1.81935307  
H      1.68695703      3.24196807     -0.54130233     -6.68193345e+00    1.56945972e-01    1.07795751e+01      -55.98519113    115.28398324      0.40779240  
H      1.73591709      3.28937781     -0.58910652     -1.34833087e+00   -1.26041468e+01   -2.55697074e+00      -16.07857327     35.27539053      2.15243507  
H      1.66223506      3.23318646     -0.53420985     -7.78328670e+00    8.10433312e+00    3.00380380e+00       -2.68031634      8.25175821     -0.04893943  
H      1.80980118      3.23168023     -0.52796819     -3.60586952e+00   -1.21982478e+01   -7.08745090e+00      -27.96952165     35.53307643      4.83947092  
H      1.83861821      3.22801473     -0.54159059     -8.05443455e+00    4.33869455e+00    2.13660111e+00       -2.91000039      2.58032555      0.57200546  
H      1.83622404      3.24371921     -0.53022351      2.35767788e+00    4.47647088e-01   -1.01686117e+01      -18.48609551     14.41034648      3.88458571  
H      1.90081622      3.21025058     -0.56384515      7.46869774e+00    7.44836172e+00    7.27534736e+00       20.16417271    -13.88815027     -5.78023746  
H      1.96227917      3.26850510     -0.58089296      3.84010746e+00   -2.68776530e+00   -5.84699985e+00      -28.62654047     19.90944117     10.63662077  
H      1.95201489      3.24874432     -0.50776442     -7.99349984e+00    3.11063830e+00   -2.58381885e+00      -37.39886912     42.43358440     11.08124336  
H      1.95737927      3.18836590     -0.56606846      1.55107106e+00    6.52217305e+00    1.94604743e+00       -9.69901004     19.02600179      7.85285660  
H      1.93224699      3.07467483     -0.67326231      1.23893658e+01    7.77028484e-02   -2.13169599e+00       14.91560165    -74.09033389    -16.89158043  
H      1.89334941      3.20150851     -0.77972311     -1.03442248e+01   -6.29629938e+00    2.15359604e+00       17.16805516    -81.36798384    -40.42609492  
H      1.91125373      3.15910105     -0.66959729      2.29200413e+00    3.98765597e-01    4.60650593e+00       12.78287940    -54.40739341    -16.33511759  
H      1.84905156      3.10348684     -0.76298360     -8.51920797e+00    7.44376694e+00    6.53597090e+00        8.81975290    -69.17189880    -29.85353604  
H      1.93477181      3.06596874     -0.69721007      3.61528329e+00    7.16249104e+00   -3.95616059e+00        9.34014575    -37.43015148    -14.67650612  
H      1.87213437      3.05691990     -0.63104809      4.82114209e-01    4.91380428e-01   -4.15112108e+00       11.22622890    -41.80806430    -10.59997858  
H      1.82868146      3.00587758     -0.67710255     -3.57997536e+00    6.19707733e+00   -6.38663222e+00        6.71160386    -58.87628231     -7.18876962  
H      1.76073024      3.86716318     -0.59888734      6.25436180e-01    5.56067332e-01   -1.27969666e+01       -9.66773713     41.03040954      4.99604667  
H      1.81798715      3.75080054     -0.58969587     -1.47508615e+01   -3.47864476e+00    6.85355006e+00        6.50945500   -103.91168350    -10.12373050  
H      1.92217940      3.85797632     -0.52721594     -6.51701182e+00   -2.62640178e+00   -1.61440634e+01        1.55073035     61.09890177     10.02575830  
H      1.88184658      3.86810493     -0.36599667     -8.81124197e+00   -1.61987325e-02   -1.61668803e+01        4.86861596     82.86766765     41.63378301  
H      1.92675591      3.83617159     -0.39458514     -9.47489299e-02    5.02705084e+00    1.19411016e+01        4.75068144     71.89136725     31.99233118  
H      1.85886283      3.93944092     -0.48453361     -4.01065392e+00    3.21983997e+00    1.04185877e+01        0.88553635     26.91914464      8.76872802  
H      1.79831179      4.08131759     -0.60375182      5.02749737e+00   -2.80494115e+00    1.25918789e-01       -8.28162615     59.76204021     12.09427173  
H      1.65763212      4.01940346     -0.56298241      3.46035900e+00   -5.42794763e+00    7.56738381e+00      -28.85795965     64.69417842     16.22689008  
H      1.61600840      3.96079647     -0.64428122     -1.28789592e+01   -6.33852119e+00    7.72032289e-01      -35.58133908     68.31262461     -1.33604755  
H      1.45402988      3.97171092     -0.57006810      2.61915752e+00   -9.08123168e-01   -9.02368374e-01      -29.80430708     48.20458766      3.80180244  
H      1.58170630      3.95851723     -0.53687075      9.27201722e+00    3.81328282e-01    5.31947322e+00       -9.63226995     42.37594347     10.68909578  
H      1.60158464      4.02163509     -0.57814510     -8.77330488e+00    3.06249834e+00    1.78683930e+00       -1.21759615     35.18956861      4.90136943  
H      1.50914923      3.92041329     -0.51733580      6.16178008e+00    5.16499926e+00   -9.67999620e+00        5.24428246    -57.92802743     -8.55642899  
H      1.39987162      3.89957151     -0.64755846     -8.10671725e+00   -4.55841342e+00   -1.14066413e+01       11.52956533    -42.10210547      1.80268965  
H      1.33320428      3.86737404     -0.59560902     -6.01318653e+00    1.35313934e+01   -7.24041788e+00       27.52723070    -61.37517857      1.81935194  
H      1.40979262      3.81270141     -0.53928348      1.30667396e+01    2.77780057e+00    9.92656462e+00       55.98519469   -115.28397564     -0.40779358  
H      1.44574745      3.92599180     -0.55026157     -4.48345720e+00   -3.28872297e+00    3.02923403e-02       16.07857682    -35.27538315     -2.15243630  
H      1.43625767      3.92889075     -0.53833584      4.91794525e-01   -4.93328949e+00    1.12586365e+00        2.68032043     -8.25174981      0.04893792  
H      1.38258235      3.77442801     -0.45404797     -1.24476768e+00   -1.57759845e+00    8.19523932e+00       27.96952568    -35.53306819     -4.83947231  
H      1.29308324      3.71174468     -0.43435722     -5.73243733e+00   -8.36817445e+00   -1.77450770e+00        2.91000453     -2.58031704     -0.57200686  
H      1.27964827      3.67758294     -0.41326715     -2.56139629e+00   -4.63284752e+00    4.25922062e+00       18.48609969    -14.41033782     -3.88458708  
H      1.27927431      3.63834011     -0.38567470     -6.64562662e+00   -1.50606328e-01    2.26909356e+00      -20.16416844     13.88815886      5.78023607  
H      1.41031786      3.65238796     -0.37580345      6.06712928e+00    1.02606652e+01   -9.91729537e+00       28.62654448    -19.90943312    -10.63662204  
H      1.50806513      3.75245946     -0.37622260      1.50768102e+01    1.88446143e+01    3.20059737e+00       37.39887333    -42.43357625    -11.08124462  
H      1.65202440      3.78736307     -0.31883625     -7.51265355e-02    3.13609808e+00   -7.18007996e+00        9.69901405    -19.02599409     -7.85285781  
H      1.76132668      3.92368825     -0.47969891      2.61889090e+00   -3.28400908e+00    2.75619778e+00      -14.91559794     74.09034097     16.89157922  
H      1.71722986      4.03622715     -0.36500947      1.59654450e+01   -3.04182877e+00   -1.47703178e+01      -17.16805159     81.36799082     40.42609373  
H      1.72775990      3.94010068     -0.43511226     -2.40129409e-01   -1.65720179e+01    2.48979266e+00      -12.78287560     54.40740076     16.33511637  
H      1.74645763      3.90811477     -0.41571850      8.79832474e+00    1.83928788e+01    1.07096827e+01       -8.81974902     69.17190643     29.85353470  
H      1.75331820      3.79313499     -0.41208544      2.93534998e+00    1.35272831e+01   -7.49145571e-01       -9.34014202     37.43015877     14.67650487  
H      1.66863607      3.81477661     -0.43890183      1.58839617e+01   -1.26616272e+00    1.37102686e+00      -11.22622512     41.80807176     10.59997724  
H      1.73432764      3.83357913     -0.57604056      1.33131358e+01   -3.87181040e+00    4.48574901e+00       -6.71160001     58.87628998      7.18876817  
H     -3.36453690     -7.11092561      1.38334954      1.67029874e+01    4.92990644e+00   -2.12473170e-01       -0.00000354     -0.00000707      0.00000138  
H     -3.31879121     -7.12671854      1.32672113     -3.95230610e+00   -1.18864999e+01   -3.22293997e+00       -0.00000369     -0.00000745      0.00000140  
H     -3.32840741     -7.15408285      1.24086541      4.22405931e+00    1.86255142e+01    4.09964587e+00       -0.00000369     -0.00000733      0.00000132  
H     -3.51482714     -7.16467381      1.11810164      2.48186595e+00    8.09278378e+00    2.33453945e+00       -0.00000359     -0.00000700      0.00000119  
H     -3.43969805     -7.15340298      1.15215402      3.55752370e+00   -1.06066069e+01    9.56189521e+00       -0.00000365     -0.00000714      0.00000123  
H     -3.36498454     -7.11184543      1.09969004     -5.03839790e-02   -1.11034637e+01    5.81214450e+00       -0.00000350     -0.00000708      0.00000118  
H     -3.30711836     -7.01857720      1.04690255     -3.55371329e+00    4.93428438e+00    7.82971508e+00       -0.00000350     -0.00000711      0.00000119  
H     -3.30200745     -7.21352856      1.10929458      1.49639573e+00   -3.03169835e+00    9.86720714e-02       -0.00000312     -0.00000648      0.00000108  
H     -3.35690224     -7.20180134      1.05213172     -1.14056989e+01   -2.84900614e+00    2.52090915e+00       -0.00000327     -0.00000669      0.00000106  
H     -3.41546538     -7.21081889      0.96299169     -1.55223754e+01   -9.65734855e+00    2.92691883e+00       -0.00000319     -0.00000670      0.00000097  
H     -3.49662525     -7.22843526      0.90232438     -5.98859591e+00   -5.76117922e+00   -1.50948618e+00       -0.00000329     -0.00000676      0.00000099  
H     -3.42165214     -7.13161423      0.90574773     -1.05678850e+01   -2.00683348e+00    9.15745960e+00       -0.00000349     -0.00000732      0.00000108  
H     -3.47166216     -7.11686609      0.93782086      5.73516971e+00   -7.56654248e+00    9.96831827e+00       -0.00000359     -0.00000754      0.00000109  
H     -3.52063572     -7.06998903      0.90302485      6.69226591e-01   -2.27196850e+00    8.32923247e+00       -0.00000369     -0.00000769      0.00000112  
H     -3.43677817     -7.10386353      0.95815704     -8.10401538e+00   -1.15579605e+01    1.05468380e+01       -0.00000360     -0.00000770      0.00000112  
H     -3.38692039     -7.12483597      1.09635949     -5.78223309e+00   -3.00313650e+00   -7.38712539e+00       -0.00000356     -0.00000760      0.00000117  
H     -3.45642750     -7.02163435      1.18200646      6.13740945e+00    1.29178217e+00   -8.21060971e-01       -0.00000355     -0.00000738      0.00000123  
H     -3.41393326     -6.83646980      1.31079266      2.05938313e+00   -6.13522959e-01    1.63227319e+00       -0.00000408     -0.00000841      0.00000151  
H     -3.44127291     -6.88665284      1.26014112     -7.41464406e-01    5.31753889e+00   -3.51338371e+00       -0.00000403     -0.00000824      0.00000140  
H     -3.45172503     -6.87218181      1.21131581      6.01652134e+00    1.37836097e+01    5.69374044e+00       -0.00000415     -0.00000851      0.00000140  
H     -3.42529984     -6.88043777      1.15802698      1.34609719e+01   -6.57961133e+00    1.42679978e-01       -0.00000418     -0.00000866      0.00000137  
H     -3.51120138     -6.85842485      1.18738762      5.79569091e+00    4.23290519e+00   -5.27652781e+00       -0.00000427     -0.00000859      0.00000139  
H     -3.48539039     -6.91874262      1.15865704      1.07518068e+00   -8.49425018e+00    4.83035913e+00       -0.00000401     -0.00000805      0.00000127  
H     -3.56222647     -6.79084522      1.14446759     -5.81489466e+00    8.66001314e+00    3.21186809e+00       -0.00000421     -0.00000814      0.00000126  
H     -3.54500653     -6.88923695      1.15133767      6.72070708e+00    3.94449823e+00   -7.16461800e+00       -0.00000401     -0.00000770      0.00000120  
H     -3.57661876     -7.02815625      1.16682379     -7.16094850e+00    5.19879424e+00    3.11344690e+00       -0.00000372     -0.00000708      0.00000121  
H     -3.52819555     -6.97306935      1.16692554     -1.09578774e+01   -1.09210863e+01   -5.61402236e-01       -0.00000357     -0.00000699      0.00000120  
H     -3.52710878     -6.94489561      1.13642131     -8.61267965e+00   -5.32515864e+00   -7.79264960e+00       -0.00000381     -0.00000735      0.00000122  
H     -3.43985830     -6.96721099      1.18150954      8.66787095e+00    6.81782462e+00   -2.45023239e-01       -0.00000388     -0.00000764      0.00000135  
H     -3.45743304     -7.08478360      1.18976817      2.33955050e+01    1.40769623e-01   -2.95981356e+00       -0.00000373     -0.00000730      0.00000125  
H     -3.46499004     -7.06308853      1.29689972      3.15181400e+00   -3.92485331e+00   -1.69561007e+01       -0.00000378     -0.00000746      0.00000134  
H     -3.37870012     -7.08846219      1.29908125      8.16598320e+00    8.07271528e+00    3.38553195e+00       -0.00000385     -0.00000768      0.00000145  
