3
100000  xi=   0.94391878  Mean pot=  -103.71100576  Cent pot=  -106.10312441 kcal/mol
H      0.04443318     -0.01656936     -0.32872929       0.17924963
H      0.68799881     -0.12611788     -0.72040829       0.14303619
H     -0.73243199      0.14268724      1.04913758       0.19698314
3
200000  xi=   0.94163471  Mean pot=  -103.57487934  Cent pot=  -106.03618101 kcal/mol
H     -0.67896671     -0.37040311      0.64104090       0.15792164
H     -0.15557303     -0.17558065      0.18305207       0.14563927
H      0.83453974      0.54598375     -0.82409297       0.17853381
3
300000  xi=   0.94324877  Mean pot=  -103.37233324  Cent pot=  -105.43567283 kcal/mol
H     -0.34167713     -0.56163149      0.68608037       0.18288833
H     -0.15644383      0.05529942      0.33702540       0.14640827
H      0.49812096      0.50633207     -1.02310577       0.14832630
3
400000  xi=   0.93561746  Mean pot=  -103.55471435  Cent pot=  -105.54297115 kcal/mol
H      0.81487812     -0.35663093      0.14712479       0.22367838
H      0.09952216     -0.52357574     -0.08557640       0.19148405
H     -0.91440028      0.88020667     -0.06154839       0.16199993
3
500000  xi=   0.94384228  Mean pot=  -102.80793875  Cent pot=  -106.28506522 kcal/mol
H      0.09550780     -1.00058884     -0.30280556       0.12331460
H      0.01753969     -0.28621073      0.00157293       0.17704140
H     -0.11304749      1.28679957      0.30123263       0.20322342
3
600000  xi=   0.93410120  Mean pot=  -104.20248380  Cent pot=  -106.20393697 kcal/mol
H     -0.59732105      0.31289600      0.65392750       0.16410487
H      0.06912342      0.06119815      0.47163255       0.20779577
H      0.52819763     -0.37409415     -1.12556005       0.17286084
3
700000  xi=   0.95056295  Mean pot=  -103.47933407  Cent pot=  -105.49827283 kcal/mol
H      0.78369465     -0.52902794      0.31269639       0.20248459
H      0.17384966     -0.14847426      0.08644789       0.22345853
H     -0.95754431      0.67750220     -0.39914429       0.20765675
3
800000  xi=   0.94490932  Mean pot=  -101.61000885  Cent pot=  -105.14977442 kcal/mol
H      0.24586193      0.19809691     -0.26711245       0.17543892
H      0.43289362     -0.36992083     -0.76415329       0.18279903
H     -0.67875555      0.17182392      1.03126573       0.22977363
3
900000  xi=   0.94807371  Mean pot=  -102.69543955  Cent pot=  -104.69354921 kcal/mol
H     -0.11377572     -0.22890834     -0.15830356       0.13873617
H     -0.13897752     -0.40250531     -0.95841887       0.13484372
H      0.25275323      0.63141365      1.11672243       0.17359962
3
1000000  xi=   0.94943787  Mean pot=  -103.18176177  Cent pot=  -105.22016901 kcal/mol
H      0.26418995      0.38135878      0.94156168       0.14626392
H      0.05690036      0.13565855      0.20413507       0.14256911
H     -0.32109031     -0.51701733     -1.14569675       0.21558583
3
1100000  xi=   0.93589388  Mean pot=  -102.41362413  Cent pot=  -106.26845957 kcal/mol
H      0.43503568      0.61207406     -0.64020326       0.18831539
H      0.44382518      0.03699160     -0.11746948       0.18277993
H     -0.87886086     -0.64906566      0.75767274       0.21411451
3
1200000  xi=   0.95110049  Mean pot=  -103.25022382  Cent pot=  -104.95855938 kcal/mol
H      0.35323084      0.92697508      0.15309321       0.12765616
H      0.03146518      0.26136227     -0.13237927       0.14505543
H     -0.38469602     -1.18833734     -0.02071394       0.15224976
3
1300000  xi=   0.94102748  Mean pot=  -103.40427805  Cent pot=  -105.80444526 kcal/mol
H      0.32015355     -0.90245058      0.13578327       0.25361028
H      0.31242939     -0.17386374      0.10456479       0.17241745
H     -0.63258294      1.07631433     -0.24034806       0.26069814
3
1400000  xi=   0.94369312  Mean pot=  -102.51910435  Cent pot=  -106.45284464 kcal/mol
H     -0.49234019      0.78656559      0.47334276       0.14626824
H     -0.15381376      0.17606644      0.15465574       0.17871681
H      0.64615395     -0.96263203     -0.62799850       0.15211956
3
1500000  xi=   0.94196151  Mean pot=  -103.46347475  Cent pot=  -105.61018850 kcal/mol
H      0.12586087      0.38413755      0.91034660       0.19473255
H      0.07863484      0.13288436      0.24602424       0.13869533
H     -0.20449571     -0.51702191     -1.15637084       0.20613628
3
1600000  xi=   0.94123539  Mean pot=  -103.45188721  Cent pot=  -106.38529606 kcal/mol
H      0.96951616     -0.08247470     -0.30113096       0.17645966
H      0.22307466      0.09098409     -0.25594454       0.15188959
H     -1.19259082     -0.00850939      0.55707550       0.14231848
3
1700000  xi=   0.94061931  Mean pot=  -103.84396089  Cent pot=  -105.34660852 kcal/mol
H     -0.76154091      0.50219701     -0.14562059       0.15862004
H     -0.05693192      0.34104109     -0.26020403       0.19903598
H      0.81847283     -0.84323811      0.40582461       0.21476329
3
1800000  xi=   0.94316586  Mean pot=  -100.91788135  Cent pot=  -104.80486352 kcal/mol
H     -0.29758269     -0.97217919     -0.40635986       0.18369111
H     -0.02033412     -0.30250642      0.00017807       0.13553979
H      0.31791682      1.27468561      0.40618179       0.19832708
3
1900000  xi=   0.94081371  Mean pot=  -104.63128862  Cent pot=  -106.03821948 kcal/mol
H     -0.82302223      0.57420554     -0.05989206       0.16481795
H     -0.24568756      0.14691654     -0.09657515       0.20840189
H      1.06870979     -0.72112208      0.15646720       0.24077921
3
2000000  xi=   0.94725187  Mean pot=  -102.83216237  Cent pot=  -104.98046967 kcal/mol
H     -0.20965446      0.41993512      0.82752274       0.18606557
H      0.05687996      0.27220115      0.16570380       0.21193842
H      0.15277450     -0.69213627     -0.99322655       0.17948264
