3
100000  xi=   0.73947918  Mean pot=  -106.73438368  Cent pot=  -109.50131003 kcal/mol
H     -0.19115454      0.47722313     -1.24412018       0.20620796
H     -0.75952364      0.76452249     -1.63250958       0.17635899
H      0.95067818     -1.24174563      2.87662976       0.19081341
3
200000  xi=   0.74533295  Mean pot=  -106.82793139  Cent pot=  -109.21652980 kcal/mol
H     -0.22037589     -1.07766956     -0.73145758       0.14466844
H     -0.04948756     -1.28851067     -1.45101975       0.17193193
H      0.26986344      2.36618023      2.18247734       0.26183119
3
300000  xi=   0.73697772  Mean pot=  -107.01713084  Cent pot=  -109.16508413 kcal/mol
H     -0.95425126      1.63520907      0.52689801       0.18241446
H     -0.58620784      0.99542819      0.75088858       0.14118771
H      1.54045910     -2.63063726     -1.27778659       0.18005578
3
400000  xi=   0.73157324  Mean pot=  -106.05571179  Cent pot=  -109.39705069 kcal/mol
H      0.12542694      0.73071768     -1.11853736       0.22171044
H      0.32199576      0.87225599     -1.80248269       0.25935231
H     -0.44742270     -1.60297366      2.92102005       0.20252139
3
500000  xi=   0.74988839  Mean pot=  -106.23821985  Cent pot=  -108.03089716 kcal/mol
H     -0.53217699     -1.30324115      0.23802032       0.21154034
H     -0.08886693     -1.68130806     -0.12307207       0.15054469
H      0.62104392      2.98454921     -0.11494825       0.21552124
3
600000  xi=   0.74933926  Mean pot=  -106.46072521  Cent pot=  -109.12213863 kcal/mol
H      0.62217157      1.70081818      0.30445174       0.14641511
H      0.35043732      1.29666358     -0.29626424       0.18767782
H     -0.97260889     -2.99748176     -0.00818750       0.19458169
3
700000  xi=   0.74258207  Mean pot=  -106.43195542  Cent pot=  -109.48451855 kcal/mol
H      0.23336314      0.74188145      1.35920935       0.12609976
H      0.59650223      0.10346498      1.50915004       0.16571655
H     -0.82986537     -0.84534643     -2.86835939       0.17204648
3
800000  xi=   0.73709168  Mean pot=  -106.89915274  Cent pot=  -109.46014038 kcal/mol
H     -0.84934375     -1.13663534     -0.13828432       0.22427885
H     -0.96702149     -1.55426778      0.47655847       0.14837443
H      1.81636524      2.69090311     -0.33827416       0.18437321
3
900000  xi=   0.74421671  Mean pot=  -106.05001766  Cent pot=  -104.98003169 kcal/mol
H     -0.75976340      0.93726954      0.80849484       0.19292506
H     -0.74208007      1.45745892      0.42311300       0.22406569
H      1.50184347     -2.39472846     -1.23160784       0.25738007
3
1000000  xi=   0.73995291  Mean pot=  -106.76678806  Cent pot=  -109.50209091 kcal/mol
H     -0.65695296      0.90276212      0.80353642       0.15720568
H     -0.39817177      1.20990573      1.43187043       0.17510447
H      1.05512474     -2.11266785     -2.23540685       0.10737264
3
1100000  xi=   0.74004022  Mean pot=  -105.81780195  Cent pot=  -108.08800942 kcal/mol
H      0.74404807      1.19945007      0.26440862       0.17415797
H      0.53530973      1.79441169     -0.23470644       0.14808368
H     -1.27935780     -2.99386176     -0.02970218       0.14020247
3
1200000  xi=   0.73676208  Mean pot=  -105.70742017  Cent pot=  -109.48567564 kcal/mol
H      1.52386043      0.39032863      0.75357022       0.19384686
H      1.52111465      0.20720736      0.02721544       0.25774959
H     -3.04497507     -0.59753600     -0.78078567       0.22798069
3
1300000  xi=   0.74219419  Mean pot=  -106.29612354  Cent pot=  -109.50955032 kcal/mol
H      0.67863908     -0.47908462      1.70240204       0.19713291
H      0.87142521     -0.35919965      0.99616213       0.19230182
H     -1.55006429      0.83828426     -2.69856417       0.17314417
3
1400000  xi=   0.73631194  Mean pot=  -107.00485499  Cent pot=  -109.43017350 kcal/mol
H      1.31310645     -0.84616409      0.25767092       0.19208863
H      1.44988873     -0.31888292      0.74070667       0.16781693
H     -2.76299518      1.16504701     -0.99837759       0.21955471
3
1500000  xi=   0.73931840  Mean pot=  -107.39864806  Cent pot=  -108.62478343 kcal/mol
H     -1.67723465      0.90031209      0.50505033       0.12655995
H     -1.17982365      0.44105685      0.33674689       0.16724786
H      2.85705830     -1.34136894     -0.84179722       0.21959993
3
1600000  xi=   0.73149008  Mean pot=  -107.50372828  Cent pot=  -109.42863809 kcal/mol
H     -1.16225877      0.52015608     -1.21429356       0.16729800
H     -1.14282823     -0.18643159     -1.03986824       0.20637706
H      2.30508700     -0.33372449      2.25416180       0.21141885
3
1700000  xi=   0.74512497  Mean pot=  -104.65180188  Cent pot=  -109.05141379 kcal/mol
H     -0.52776294     -1.41393354      0.75173282       0.17540161
H     -1.05182096     -1.05751635      0.30366887       0.18401314
H      1.57958390      2.47144989     -1.05540169       0.16441423
3
1800000  xi=   0.74367281  Mean pot=  -105.20031140  Cent pot=  -108.03912123 kcal/mol
H      0.77009834      0.97159729     -0.62069079       0.15203805
H      1.30222797      0.74613592     -1.18153100       0.17713797
H     -2.07232630     -1.71773321      1.80222178       0.16555882
3
1900000  xi=   0.73046439  Mean pot=  -106.74014210  Cent pot=  -108.37174813 kcal/mol
H      0.07231807      0.37601304      1.94565036       0.16739891
H     -0.11525803      0.04952130      1.36498017       0.19792064
H      0.04293995     -0.42553434     -3.31063052       0.15927226
3
2000000  xi=   0.74342961  Mean pot=  -106.10285663  Cent pot=  -107.02736457 kcal/mol
H     -0.15858037     -0.80786289      1.28859400       0.21067604
H      0.40075017     -0.48812055      1.47306187       0.15204143
H     -0.24216980      1.29598344     -2.76165587       0.17735908
