3
100000  xi=   1.12964137  Mean pot=  -107.03790442  Cent pot=  -109.26658599 kcal/mol
H     -0.72708139     -1.43122686     -0.73313068       0.28974564
H      0.38787321      0.46023685      0.10325101       0.18953663
H      0.33920818      0.97099001      0.62987967       0.17593428
3
200000  xi=   1.13687094  Mean pot=  -106.27971972  Cent pot=  -109.13438485 kcal/mol
H      0.20792883      1.55638836     -0.75316359       0.23728492
H     -0.20506887     -0.47829899      0.58145046       0.20343085
H     -0.00285997     -1.07808937      0.17171313       0.18542174
3
300000  xi=   1.12838535  Mean pot=  -107.10883728  Cent pot=  -109.00766365 kcal/mol
H     -0.45594721     -0.36820529     -1.64317557       0.26148280
H     -0.00287605      0.02094376      0.59999517       0.21466166
H      0.45882327      0.34726152      1.04318040       0.18050411
3
400000  xi=   1.13784299  Mean pot=  -104.16226589  Cent pot=  -108.53944233 kcal/mol
H     -0.60884815     -0.20938031      1.41543157       0.23127907
H      0.14415069     -0.04088502     -1.00909202       0.23463093
H      0.46469747      0.25026533     -0.40633955       0.18289583
3
500000  xi=   1.14409409  Mean pot=  -106.99380263  Cent pot=  -109.40169383 kcal/mol
H     -1.12761849     -0.46489692     -1.39829592       0.21758074
H      0.55902547      0.22131958      0.32778601       0.18325922
H      0.56859302      0.24357735      1.07050991       0.19219884
3
600000  xi=   1.13416844  Mean pot=  -103.61487755  Cent pot=  -108.13699901 kcal/mol
H     -0.68703813      0.01841906     -1.41398980       0.24569210
H      0.48252380      0.31551910      0.70815831       0.19390218
H      0.20451433     -0.33393815      0.70583148       0.13721952
3
700000  xi=   1.13822164  Mean pot=  -105.15587100  Cent pot=  -108.95674317 kcal/mol
H     -0.90304564      1.29749276     -0.49983268       0.22823834
H      0.76571717     -0.46331196      0.15897443       0.19577748
H      0.13732847     -0.83418080      0.34085825       0.18983178
3
800000  xi=   1.13082164  Mean pot=  -105.76343103  Cent pot=  -108.87902505 kcal/mol
H      1.46282589      0.98159119     -0.27251600       0.20837954
H     -0.41125477     -0.33823387      0.16060597       0.25440357
H     -1.05157112     -0.64335732      0.11191003       0.17232160
3
900000  xi=   1.12840652  Mean pot=  -105.62324598  Cent pot=  -109.27473938 kcal/mol
H     -1.05805299      0.22775281      1.41713871       0.19055479
H      0.45131719     -0.14170978     -0.34184803       0.15836681
H      0.60673580     -0.08604303     -1.07529067       0.15110035
3
1000000  xi=   1.13048101  Mean pot=  -103.26477298  Cent pot=  -107.66302017 kcal/mol
H      1.07787804      0.79308997     -1.09783146       0.18203168
H     -0.69885287     -0.09849663      0.32982746       0.24426717
H     -0.37902517     -0.69459333      0.76800400       0.18595971
3
1100000  xi=   1.13882986  Mean pot=  -106.60541853  Cent pot=  -109.36685379 kcal/mol
H      1.74685610      0.50002210     -0.23056813       0.18066413
H     -0.52869084     -0.28660299      0.25407831       0.25140685
H     -1.21816525     -0.21341911     -0.02351018       0.19896264
3
1200000  xi=   1.13107969  Mean pot=  -107.08534707  Cent pot=  -109.33734042 kcal/mol
H     -0.48603466      0.66801665     -1.60737370       0.24925525
H      0.17072564     -0.29759369      0.44304782       0.19332111
H      0.31530902     -0.37042295      1.16432588       0.18159323
3
1300000  xi=   1.13321114  Mean pot=  -105.18724866  Cent pot=  -108.77447693 kcal/mol
H     -1.57187576     -0.17266745      0.23006668       0.15320807
H      0.86337335      0.08932472      0.24377701       0.17521945
H      0.70850241      0.08334273     -0.47384370       0.14888375
3
1400000  xi=   1.13576085  Mean pot=  -106.89230747  Cent pot=  -108.77373391 kcal/mol
H      0.45957577      0.57107776     -1.64660682       0.17984751
H     -0.23993644     -0.26922643      0.47060224       0.14955872
H     -0.21963932     -0.30185134      1.17600458       0.16208829
3
1500000  xi=   1.12088748  Mean pot=  -106.10852179  Cent pot=  -109.04032754 kcal/mol
H      0.84316463      1.11247059     -0.95575745       0.15335252
H     -0.19785770     -0.26959065      0.48517994       0.18121058
H     -0.64530693     -0.84287994      0.47057751       0.16213159
3
1600000  xi=   1.13321926  Mean pot=  -103.85886596  Cent pot=  -109.10553538 kcal/mol
H      0.98267265     -1.08591256     -1.13484485       0.22565708
H     -0.36276396      0.29134364      0.30669269       0.19644868
H     -0.61990870      0.79456892      0.82815216       0.18899378
3
1700000  xi=   1.13639118  Mean pot=  -106.79406609  Cent pot=  -109.14604881 kcal/mol
H     -0.13314832      1.33149425      1.08482042       0.22697327
H     -0.23423769     -0.66534519     -0.32974967       0.16213531
H      0.36738601     -0.66614907     -0.75507075       0.12726162
3
1800000  xi=   1.13319775  Mean pot=  -106.85761048  Cent pot=  -107.11753362 kcal/mol
H     -0.72727655      1.50321550      0.32714835       0.18163297
H      0.45325311     -0.44035518     -0.26167911       0.17454808
H      0.27402345     -1.06286032     -0.06546924       0.18588574
3
1900000  xi=   1.13394094  Mean pot=  -104.08039977  Cent pot=  -108.37703530 kcal/mol
H     -0.18557522      1.04457690      1.35583057       0.19886640
H      0.18301695     -0.15252988     -0.77677309       0.20696739
H      0.00255826     -0.89204702     -0.57905748       0.20812069
3
2000000  xi=   1.13251693  Mean pot=  -105.12542156  Cent pot=  -109.11093277 kcal/mol
H     -0.72320202      0.24800220     -1.58213076       0.14595364
H      0.32524608     -0.29820944      0.47652651       0.16775718
H      0.39795595      0.05020725      1.10560425       0.17301644
