96
100000  xi=   0.06802379  Mean pot=  -106.47850933  Cent pot=  -109.30492870 kcal/mol
H      0.60485327      4.93601186     -0.27997006      9.09950961e+00    6.00529751e+00   -1.01606674e+01     -138.06226684    -15.81001403     22.30926082  
H      0.62230910      4.87598299     -0.33689424     -1.85022723e+01   -5.28380036e+00    1.46801526e+00       -9.78886035     -0.73684686      3.80280725  
H      0.69989222      4.90260154     -0.32838587     -6.18869901e+00   -2.12244635e+00    2.18390226e+00        7.83426598      0.88895559     -3.39510925  
H      0.68242217      4.88563308     -0.23028579     -7.16364786e+00    4.26953305e+00   -1.56969142e+00       23.59950697      1.21026195     -4.16325885  
H      0.77703455      4.92255724     -0.17073134      1.18117924e+00    3.48218018e-02    1.30182971e+01       72.84830091     11.95788947     -1.87440978  
H      0.65136727      5.09157274     -0.20997389     -4.91616219e+00    9.32073072e+00    1.50197639e+01        5.12889676      1.43622896     -0.29358664  
H      0.66726929      5.21477337     -0.23145850      8.90783030e+00   -3.33729204e+00   -6.00519547e+00       24.83457341      8.17503017      2.65209282  
H      0.64975057      5.18627726     -0.16503492      5.89784179e+00   -8.47157168e+00   -5.45277603e-01       41.94272828     14.93761663      8.91183419  
H      0.65151266      5.12342743     -0.14746584      5.83216532e+00    6.29053679e+00   -3.78367567e+00       51.50294484     17.79714324      9.76877987  
H      0.52727507      5.12849071     -0.17961346     -1.43587358e+00   -5.82643694e+00   -4.25984231e+00       57.99271404     12.44021932      0.33203734  
H      0.49187334      4.91847431     -0.26132652      6.90531575e+00   -2.82553933e+00    1.06452872e+01       26.02312463     -5.47537549     -3.01809412  
H      0.40814409      4.93335177     -0.25710356      5.64099652e+00    2.73135782e+00    1.11784657e+01       -1.52845043      0.52046876      0.17716851  
H      0.33374241      4.80954340     -0.18712743      8.67701607e+00   -9.66709274e+00   -1.86599054e+01       37.06591847    -20.85647566     -3.82355877  
H      0.34535130      4.80010837     -0.27942776     -7.01035321e+00   -9.69682057e-01   -1.07846291e+01       74.76456222    -34.06265236    -11.37793467  
H      0.31624740      4.86270640     -0.26359422     -6.75848791e+00    2.18626267e+01    1.22164018e+00       61.69430271    -18.27361737    -14.36912559  
H      0.40721962      4.81524042     -0.27827207     -4.29878197e+00   -1.28880600e+00    1.11187338e+01       78.05864638    -25.32784830    -29.03033602  
H      0.42092247      4.99387178     -0.29106671     -8.29768048e+00   -1.11151567e+01   -4.62776135e+00       48.08672971     -4.49414700    -17.15153131  
H      0.36059752      4.98407479     -0.19427522      2.61556061e+00    7.07828543e-01    4.25823796e+00        5.43301266     -0.28400121     -1.09651904  
H      0.38098764      4.95680856     -0.06828082     -8.73267639e+00   -4.01957013e+00   -6.65655988e-01      -59.24052155     -5.50505847     -1.18091794  
H      0.43601223      4.95610841      0.03985651     -1.12574468e+01    8.52505452e-01   -2.92226032e-02       74.45528421     11.21497233     19.58881673  
H      0.34601537      4.92094810      0.01548097      9.40599157e+00   -1.58154918e+01    4.16363390e+00      -33.40590328     -3.71127825     -6.94237417  
H      0.41453725      4.89738326     -0.05392597      1.54839622e+00    1.38077037e+01    9.44014384e+00       18.42772302      2.47195052      0.23579728  
H      0.45453148      4.95890763     -0.05829557      5.46053761e+00    3.23036970e+00   -1.14657938e+01      -80.94737456    -19.10105561     -1.03127466  
H      0.50870222      4.88387894     -0.03292354      2.29165107e+00    4.88262372e+00   -5.76264807e+00      -72.39963441      8.44095192      1.49474010  
H      0.58877741      4.75469451     -0.06834025     -3.42569521e+00    7.78259551e+00    1.26788588e+00        6.57085850     -3.01038717     -0.81094175  
H      0.68391974      4.77999370     -0.17263224      7.69202139e+00    2.54516962e+00    1.02854180e+01       53.98691474    -19.46363674     -1.66371503  
H      0.54324293      4.88938879     -0.17518313      7.96991885e+00   -3.32996471e+00   -1.12791615e+00      -77.92853483     40.33996912      4.99929995  
H      0.54657599      4.89236700     -0.13519699      4.10239858e+00   -3.92958240e-01    1.02788967e+01     -214.60685590     60.42516168     -0.93296382  
H      0.50323096      4.80150118     -0.08367155      1.85653144e+00    1.16637641e+01    8.32570771e+00     -154.36082836     74.95108680    -53.16618688  
H      0.62113283      4.74971308     -0.10987803      5.58325736e+00    7.99544603e+00   -7.60470103e+00      -40.59262083     12.47016997     -3.52168627  
H      0.58404014      4.75936072     -0.08283072      1.69104010e+00   -3.36326813e+00   -1.19932270e+01       18.41717641     -4.92941144      1.80894781  
H      0.55462203      4.80662153     -0.16608780      1.02599901e+01   -7.74576331e+00   -3.62038995e+00      -79.60464549      8.56054636    -10.79692215  
H     -0.01028325      4.86557033     -0.18057113     -2.73698604e+00   -4.90722484e+00   -1.39988587e-01      138.06226690     15.81001573    -22.30926091  
H     -0.05593811      4.82492854     -0.07340663     -1.56957765e+00    9.93136899e-01    4.27647486e+00        9.78886040      0.73684860     -3.80280734  
H      0.01328766      4.82469247     -0.03083439     -7.87785855e+00   -1.84576060e-01   -9.64920880e+00       -7.83426591     -0.88895388      3.39510918  
H     -0.07855118      4.84660784     -0.09604023      9.46943466e+00    2.55343751e-01   -1.20024509e+01      -23.59950689     -1.21026026      4.16325880  
H     -0.08732608      4.78067434     -0.14849107     -2.89197186e+00    7.95838462e+00    4.48437782e+00      -72.84830084    -11.95788776      1.87440972  
H     -0.06802792      4.89012286     -0.16879451      3.80594178e+00    2.41743176e+00   -1.07939505e+00       -5.12889670     -1.43622731      0.29358659  
H     -0.06714236      4.97302020     -0.30988658     -1.87565800e+00   -2.11179370e+00    9.40103764e+00      -24.83457336     -8.17502853     -2.65209287  
H     -0.09795900      4.91998561     -0.32390546     -1.45002675e+00   -1.29513492e+00   -7.36335573e+00      -41.94272824    -14.93761511     -8.91183424  
H     -0.12020404      4.85675623     -0.29384058     -1.89735140e+01   -7.42907183e+00   -5.92663454e+00      -51.50294479    -17.79714165     -9.76877992  
H     -0.29236401      4.95266708     -0.18430631      1.39787122e+00    5.10709576e+00   -2.74683601e+00      -57.99271400    -12.44021778     -0.33203737  
H     -0.26448810      5.07761598     -0.17360570     -5.24182851e+00    2.74776179e+00   -5.31618402e+00      -26.02312457      5.47537705      3.01809409  
H     -0.28787550      5.17036035     -0.17642528     -8.49393589e+00    5.40311711e+00    4.92448056e+00        1.52845047     -0.52046717     -0.17716854  
H     -0.36452147      5.20244677     -0.11509757     -3.52514569e+00    5.47829364e+00   -4.21205564e+00      -37.06591843     20.85647730      3.82355874  
H     -0.47185323      5.17242586     -0.15506269     -4.21277972e+00   -4.19838444e+00   -8.74881804e+00      -74.76456217     34.06265405     11.37793464  
H     -0.48319934      5.09949949     -0.07739631     -1.23642899e+01    7.58860449e+00    8.10572082e-01      -61.69430268     18.27361904     14.36912556  
H     -0.42045349      5.08379721      0.02954301      9.80297281e+00    3.83810755e+00    9.79555111e+00      -78.05864634     25.32784998     29.03033598  
H     -0.34928919      5.06585515     -0.01634831      1.58939769e+00   -5.16223201e+00    2.30091728e+00      -48.08672967      4.49414869     17.15153125  
H     -0.37212206      5.02237655     -0.04639392     -1.07847533e+01    2.07724929e+00    7.78666584e-02       -5.43301262      0.28400308      1.09651896  
H     -0.29859693      4.89365663     -0.08182785      3.00222637e+00   -1.01407604e+01    1.97721263e+00       59.24052159      5.50506036      1.18091787  
H     -0.41435827      4.82801970     -0.18387176     -3.40451806e+00   -5.26748447e+00    5.92920082e-01      -74.45528417    -11.21497039    -19.58881679  
H     -0.34012409      4.84472041     -0.12711170     -1.04905409e+01    1.12449987e+01   -9.86515384e+00       33.40590332      3.71128020      6.94237412  
H     -0.34448358      4.79556595     -0.06363824     -1.60133393e+00   -6.89457026e+00    3.03909472e-01      -18.42772297     -2.47194853     -0.23579733  
H     -0.19194491      4.80635936     -0.06653172      3.56840950e+00    3.95658702e+00   -4.09142275e+00       80.94737462     19.10105751      1.03127461  
H     -0.15862073      4.96168100     -0.01914620      3.91234045e+00    1.66882084e+01    6.58234869e+00       72.39963450     -8.44094994     -1.49474015  
H     -0.08941853      5.06540475      0.01535922      4.02631141e+00    1.49004297e+00   -6.29955092e+00       -6.57085841      3.01038907      0.81094170  
H     -0.10032588      5.06273393     -0.14846413      6.43529846e+00   -6.13661986e+00   -9.45347023e+00      -53.98691464     19.46363850      1.66371497  
H     -0.04270526      5.19270685     -0.13759317     -3.22430048e+00   -6.39290855e+00   -1.12892503e+01       77.92853491    -40.33996741     -4.99930000  
H     -0.01756616      5.05120806     -0.13764949     -2.92938883e+00   -1.61661922e+01   -2.97499834e+00      214.60685598    -60.42515989      0.93296377  
H     -0.01772662      5.05445614     -0.26310391     -2.45618705e+00    1.37885028e+01    9.12206002e+00      154.36082843    -74.95108498     53.16618682  
H     -0.04308374      4.95376231     -0.16750334      9.17115015e-02    1.23085767e+01    3.10258705e+00       40.59262091    -12.47016819      3.52168621  
H     -0.15324961      4.95669852     -0.15524783      1.37941096e+01    2.20349702e+00    9.42001745e+00      -18.41717634      4.92941322     -1.80894788  
H     -0.10165825      4.87719677     -0.25510029     -1.40211345e+00    9.68614811e+00    1.91917283e+00       79.60464555     -8.56054458     10.79692207  
H     -0.25446904     -9.95531754      0.55145212      1.75763269e+01    5.31741602e+00   -4.17110539e-01       -0.00000006     -0.00000171      0.00000009  
H     -0.20883451     -9.97103773      0.49479900     -3.06937266e+00   -1.15052708e+01   -3.42544376e+00       -0.00000006     -0.00000174      0.00000008  
H     -0.21835036     -9.99849647      0.40897807      5.09833258e+00    1.90148936e+01    3.89413993e+00       -0.00000006     -0.00000171      0.00000007  
H     -0.40482583    -10.00900315      0.28618116      3.36094631e+00    8.47488939e+00    2.13189234e+00       -0.00000008     -0.00000170      0.00000005  
H     -0.32970444     -9.99777810      0.32025385      4.43727023e+00   -1.02205552e+01    9.35749526e+00       -0.00000008     -0.00000172      0.00000006  
H     -0.25492243     -9.95622877      0.26778921      8.23447991e-01   -1.07166982e+01    5.60779968e+00       -0.00000006     -0.00000165      0.00000005  
H     -0.19716249     -9.86290116      0.21498248     -2.67071067e+00    5.31591581e+00    7.62703124e+00       -0.00000005     -0.00000164      0.00000005  
H     -0.19194341    -10.05794309      0.27740715      2.37006297e+00   -2.64224196e+00   -1.06829298e-01       -0.00000004     -0.00000153      0.00000005  
H     -0.24691184    -10.04612466      0.22020927     -1.05256779e+01   -2.46742961e+00    2.31843195e+00       -0.00000005     -0.00000158      0.00000005  
H     -0.30546072    -10.05520334      0.13109486     -1.46435855e+01   -9.27049225e+00    2.72222914e+00       -0.00000004     -0.00000154      0.00000003  
H     -0.38657070    -10.07280930      0.07041997     -5.11411260e+00   -5.37522342e+00   -1.71352130e+00       -0.00000005     -0.00000156      0.00000003  
H     -0.31169483     -9.97594449      0.07383030     -9.68500747e+00   -1.62465877e+00    8.95454934e+00       -0.00000004     -0.00000159      0.00000003  
H     -0.36159304     -9.96127960      0.10593266      6.60839404e+00   -7.17718060e+00    9.76288397e+00       -0.00000004     -0.00000165      0.00000003  
H     -0.41065529     -9.91430788      0.07110107      1.55010789e+00   -1.89077987e+00    8.12687121e+00       -0.00000004     -0.00000170      0.00000003  
H     -0.32676205     -9.94825649      0.12626322     -7.22621639e+00   -1.11703669e+01    1.03418900e+01       -0.00000003     -0.00000167      0.00000003  
H     -0.27687491     -9.96920029      0.26445145     -4.90696535e+00   -2.61802313e+00   -7.59084438e+00       -0.00000003     -0.00000168      0.00000004  
H     -0.34646651     -9.86597213      0.35009211      7.01996843e+00    1.67461461e+00   -1.02423639e+00       -0.00000004     -0.00000169      0.00000006  
H     -0.30386110     -9.68088028      0.47890302      2.93234673e+00   -2.24420943e-01    1.42696593e+00       -0.00000004     -0.00000187      0.00000008  
H     -0.33130110     -9.73096890      0.42821670      1.40161427e-01    5.69849442e+00   -3.71568981e+00       -0.00000005     -0.00000189      0.00000007  
H     -0.34169749     -9.71658217      0.37942452      6.89333634e+00    1.41718408e+01    5.48857502e+00       -0.00000004     -0.00000194      0.00000006  
H     -0.31526463     -9.72479238      0.32611538      1.43371262e+01   -6.19533297e+00   -6.07310120e-02       -0.00000004     -0.00000194      0.00000005  
H     -0.40123468     -9.70277126      0.35547667      6.67775468e+00    4.61648184e+00   -5.47999585e+00       -0.00000006     -0.00000199      0.00000006  
H     -0.37531745     -9.76314844      0.32676533      1.94807796e+00   -8.10555449e+00    4.62523200e+00       -0.00000006     -0.00000190      0.00000005  
H     -0.45226169     -9.63516046      0.31254325     -4.93266363e+00    9.04090168e+00    3.00955635e+00       -0.00000009     -0.00000198      0.00000005  
H     -0.43496811     -9.73364340      0.31944837      7.59658492e+00    4.33325185e+00   -7.36995202e+00       -0.00000009     -0.00000190      0.00000005  
H     -0.46659462     -9.87250160      0.33490886     -6.28383773e+00    5.58228024e+00    2.91032369e+00       -0.00000009     -0.00000176      0.00000006  
H     -0.41822131     -9.81742511      0.33501818     -1.00764626e+01   -1.05367050e+01   -7.65179515e-01       -0.00000008     -0.00000172      0.00000006  
H     -0.41703730     -9.78929518      0.30452697     -7.73965521e+00   -4.93699746e+00   -7.99755117e+00       -0.00000008     -0.00000179      0.00000005  
H     -0.32989864     -9.81152730      0.34958597      9.55054285e+00    7.19880401e+00   -4.47402263e-01       -0.00000007     -0.00000182      0.00000006  
H     -0.34738467     -9.92919453      0.35788019      2.42705253e+01    5.29911083e-01   -3.16526344e+00       -0.00000008     -0.00000178      0.00000006  
H     -0.35497734     -9.90742533      0.46498178      4.02991187e+00   -3.54210249e+00   -1.71589661e+01       -0.00000007     -0.00000179      0.00000007  
H     -0.26871678     -9.93282762      0.46717752      9.04661448e+00    8.45792902e+00    3.18143972e+00       -0.00000006     -0.00000178      0.00000008  
