96
100000  xi=   0.56065983  Mean pot=  -106.47746791  Cent pot=  -109.12130921 kcal/mol
H      0.17831444      1.91152253     -2.24893967     -1.76551273e+00   -2.21001005e-01   -1.18424635e+01        7.87736030     25.81311216    -37.06422951  
H      0.15133582      1.80115853     -2.24561169     -1.24005395e+01   -5.93200146e+00    3.87515134e+00        4.39280651     13.01646238    -27.05608752  
H      0.21942560      1.77556722     -2.21866167     -1.51113033e+01   -3.60854574e-02   -4.79762792e+00        0.85580205      2.15274686     -5.79262352  
H      0.27255695      1.85939995     -2.13231308      2.50641981e+00    5.14903894e+00   -5.87837585e+00        7.98490487     10.56308550    -13.94257247  
H      0.34470522      1.82611096     -2.11803804      3.32779146e+00    1.82103544e+00    1.44584173e+01        6.47231902      6.59114494     -9.18050253  
H      0.29763083      1.96482335     -2.13047697     -1.07195084e+00    1.05317072e+01    1.34104043e+01       -0.67486359     -0.66422716      0.86755094  
H      0.29040849      2.07324333     -2.28172875     -7.35136316e+00   -6.14553276e+00    5.07552416e+00       24.28190961     26.69616476    -43.41609765  
H      0.29982420      1.93687053     -2.21946706      3.58399202e+00    3.21714653e+00    5.27758997e+00       -2.05142479     -0.97651966      2.74042858  
H      0.22559933      1.82340690     -2.19810709     -9.91212774e+00    9.24107686e-01   -6.61216122e-01      -45.14095867    -15.39521829     87.01622925  
H      0.08104356      1.91108626     -2.19804153      8.86102790e+00   -9.38161004e-01    3.45233682e+00       -1.00573414     -0.58136714      2.14826173  
H      0.20925619      1.83095616     -2.20147695      5.48766505e+00    2.11074212e-01   -5.62073994e+00       35.88825099      6.34948567    -36.98965088  
H      0.12935920      1.85741092     -2.22110389      2.22201959e+00   -1.43239571e+00    3.14812243e-01       29.82584257      2.65001547    -36.23366222  
H      0.11825364      1.72782092     -2.16433289      7.65880815e+00   -6.79671754e+00   -7.48709147e+00       60.39304801    -11.39373911    -60.36558049  
H      0.01985520      1.73544425     -2.23594320      1.08399688e-01   -1.42113069e+00   -7.19027003e+00       41.81503637     -5.15378690    -50.41257928  
H      0.05570904      1.87018700     -2.19635454     -1.10205572e+01    1.45752364e+01   -5.73620215e+00       64.58286439     20.98023626    -65.95156820  
H      0.12052901      1.81337975     -2.14200872     -3.67180294e-01   -1.06057613e+00    1.25714694e+01       59.53412396     15.31441087    -61.56494397  
H      0.07087385      1.92958238     -2.15128234     -9.08038501e+00   -1.66909025e+01   -8.67770537e+00       20.68432806     10.82930041    -28.34184305  
H      0.01168929      1.85861911     -2.10392655      4.75072073e+00   -3.82938413e+00   -1.56523457e-01       -5.60252811     -1.97933934      7.95281649  
H      0.05127215      1.88391350     -2.00649071     -1.36999038e+01   -7.87309455e+00    1.39932792e+01      -12.80293382    -11.34480300     15.48623909  
H      0.00969414      1.90219314     -1.99321824     -7.19313247e+00    5.77324717e-02    1.06761462e+00        2.50782396      3.04373983     -3.07733133  
H      0.06100862      1.91318527     -1.97318726      3.75622135e+00   -3.07826581e+00    7.76984891e+00       33.67377200     33.81697988    -30.88518789  
H      0.12120817      1.86820523     -1.98033855      6.17951710e+00    1.10502081e+01    4.28790006e+00       43.86095699     38.17032361    -36.77822059  
H      0.26293936      1.93993704     -2.01565422     -5.48025730e+00    9.02466188e-01   -1.01457047e+01       64.13792748     55.01648237    -52.49384668  
H      0.31425050      1.87349905     -1.93797627      2.28764617e+00    1.13380829e+01   -3.20368087e+00       51.65905674     26.48539209    -34.79432653  
H      0.43124537      1.81503446     -1.93235895      8.07470126e-02    1.73363146e+01    6.48286481e+00       65.07345401     21.51415052    -37.74598815  
H      0.43069458      1.84695074     -2.10949181      8.30474381e+00   -1.56827413e+00    3.51683252e+00       56.10554476     24.48704449    -44.16640881  
H      0.32258234      1.99907656     -2.07200134     -2.11201874e+00   -9.38565355e+00   -8.78275795e+00       15.63233694     10.51011666    -13.44856112  
H      0.24897694      1.91707675     -2.11686568      1.43272284e-01   -6.39884154e-01   -3.79812310e+00        2.60388447      2.44700782     -4.35239296  
H      0.23423924      1.85007576     -2.15151712      5.90408906e+00    1.07873200e+01    1.13052018e+01       -3.75502206     -2.90842119      5.98515303  
H      0.22876635      1.78927208     -2.15610183     -2.98326727e+00    6.92835330e+00   -4.68957760e+00        6.37451470      7.69685165    -16.20904840  
H      0.15989534      1.85467113     -2.14220377      8.49211905e+00   -7.60834780e+00   -5.57244290e+00       18.27644134     29.38592585    -45.59552618  
H      0.14500961      1.79210423     -2.25207612      1.35671792e+01    1.68487457e-01   -1.02610637e+01       11.51682946     18.02301049    -37.67828904  
H      0.03909951      1.45532316     -1.59390044      8.05675886e+00   -2.16345419e-01    1.61465329e+00       -7.87737982    -25.81286372     37.06396901  
H      0.03792020      1.46507783     -1.54704670     -7.74615068e+00    1.00406532e-01    1.94700548e+00       -4.39282679    -13.01620049     27.05584029  
H      0.11664556      1.51695800     -1.52290537      9.69428632e-01   -3.80360898e+00   -2.59052625e+00       -0.85581580     -2.15248695      5.79239865  
H     -0.04584692      1.43816491     -1.57631739     -2.71616270e-01   -2.16531820e+00   -7.62049287e+00       -7.98494463    -10.56281423     13.94230258  
H     -0.03207810      1.44237993     -1.58356679     -5.11633136e+00    4.63668637e+00    3.12470087e+00       -6.47236193     -6.59091065      9.18026833  
H     -0.09145370      1.58214139     -1.63058340     -1.09151806e-01   -3.30025710e-01    6.02247370e-01        0.67481935      0.66443020     -0.86775185  
H     -0.06738915      1.67986430     -1.64197857      1.43080083e+01   -8.44085372e-01   -1.60097104e+00      -24.28195418    -26.69592900     43.41587661  
H     -0.12514953      1.73462159     -1.65180814      7.89140523e-01   -1.45167235e+01   -1.31100483e+01        2.05139921      0.97664969     -2.74054230  
H     -0.07144554      1.72210231     -1.62550879     -3.30067124e+00   -3.60426769e+00   -8.97507570e+00       45.14093740     15.39536303    -87.01634629  
H     -0.22321452      1.73531912     -1.54825546     -8.97674619e+00   -1.31591615e+00   -1.03788642e+01        1.00570311      0.58155553     -2.14840794  
H     -0.35903651      1.73041024     -1.61574211     -3.89476520e+00   -1.82636513e+00    1.10218848e+01      -35.88826899     -6.34935474     36.98953536  
H     -0.38619053      1.81160311     -1.59479138     -5.15106753e+00    8.02732100e+00    1.58675197e+01      -29.82586156     -2.64988307     36.23354606  
H     -0.52615871      1.84939605     -1.52021409     -2.58095773e+00    1.07469048e+00   -1.53096848e+01      -60.39305624     11.39386955     60.36545308  
H     -0.52350594      1.80241448     -1.58086205     -1.14035122e+01   -5.28861692e+00   -1.22681916e+01      -41.81505000      5.15392373     50.41245012  
H     -0.59974603      1.65725627     -1.52700719     -8.17977899e+00    1.33418911e+01    7.84792653e+00      -64.58290023    -20.98006601     65.95141218  
H     -0.51093165      1.65094336     -1.48900667      5.80108091e+00    2.07153332e+00    8.41506043e+00      -59.53415298    -15.31426326     61.56480656  
H     -0.37633465      1.69543976     -1.53850671      2.29537391e+00   -1.12526958e+00    6.43066395e+00      -20.68436637    -10.82913125     28.34168899  
H     -0.40034877      1.71306793     -1.51905935     -1.29931833e+01    5.08045127e+00    4.56728310e+00        5.60249110      1.97949767     -7.95296632  
H     -0.34602303      1.53188245     -1.52594635      7.89681735e+00   -7.82899535e+00   -1.26058528e+01       12.80287367     11.34502007    -15.48646988  
H     -0.36512977      1.44717343     -1.53316728     -7.54602309e+00   -6.00652488e+00   -4.24944681e-01       -2.50789732     -3.04348010      3.07703439  
H     -0.43228647      1.41778555     -1.52073544     -4.91093964e+00   -3.03138259e+00   -1.33987251e+01      -33.67384615    -33.81673359     30.88490566  
H     -0.42824302      1.39003641     -1.51960821     -6.30970833e+00   -5.67530537e+00    5.53616834e+00      -43.86102351    -38.17008121     36.77794093  
H     -0.37749553      1.39057927     -1.49148539      1.44367006e+01    4.75003188e+00   -5.33732120e+00      -64.13798841    -55.01623420     52.49356832  
H     -0.34130128      1.53739760     -1.49643443      3.84295652e+00    8.69123140e+00    4.09972805e+00      -51.65909824    -26.48517295     34.79408959  
H     -0.30898043      1.57030511     -1.50298858      4.43192250e-01   -9.59708088e+00   -1.14360775e+01      -65.07347446    -21.51397178     37.74579960  
H     -0.22426784      1.56109304     -1.59390188      5.75225394e+00   -3.56273226e+00   -2.61223154e+00      -56.10557060    -24.48688719     44.16624859  
H     -0.19912823      1.64830443     -1.62316150      6.78004043e+00   -1.87464442e+00   -3.55426297e+00      -15.63237169    -10.50995467     13.44839342  
H     -0.09711650      1.59175585     -1.53828684      9.57870506e-01   -1.74541053e+01    1.11755728e+01       -2.60392896     -2.44673839      4.35213613  
H     -0.12585868      1.57121283     -1.57760748     -6.57791487e+00    1.31235666e+01    6.21946233e+00        3.75497773      2.90864868     -5.98537014  
H     -0.02781795      1.47943674     -1.50363540      8.58221919e+00    1.18427893e+01    2.65353892e-01       -6.37454990     -7.69656510     16.20878622  
H     -0.10626921      1.42670747     -1.47817457      6.92248928e+00    4.90824078e+00    3.07203976e+00      -18.27648182    -29.38563414     45.59523264  
H     -0.06912723      1.45698525     -1.55149753     -4.78706810e+00    2.35393988e-01    8.64020744e+00      -11.51686247    -18.02275183     37.67804230  
H      0.12265291     -3.52057236      3.93375371      1.76505489e+01    6.85208554e+00   -4.90186544e-01        0.00001952     -0.00024844      0.00026050  
H      0.16828993     -3.53634106      3.87718783     -2.99535032e+00   -9.96619485e+00   -3.50581185e+00        0.00002028     -0.00026189      0.00024724  
H      0.15877672     -3.56377211      3.79127013      5.17206528e+00    2.05514008e+01    3.82171006e+00        0.00001375     -0.00025991      0.00022487  
H     -0.02770487     -3.57427468      3.66854531      3.43538226e+00    1.00115233e+01    2.05346686e+00        0.00003976     -0.00027127      0.00026988  
H      0.04742509     -3.56308009      3.70259172      4.51086029e+00   -8.68138570e+00    9.28089676e+00        0.00004291     -0.00023429      0.00023420  
H      0.12219969     -3.52147931      3.65009557      8.97790735e-01   -9.18182284e+00    5.53427515e+00        0.00004424     -0.00020304      0.00020092  
H      0.17996360     -3.42820345      3.59736534     -2.59678089e+00    6.85543333e+00    7.54654041e+00        0.00004457     -0.00023576      0.00022104  
H      0.18518281     -3.62321049      3.65969329      2.44394134e+00   -1.10607832e+00   -1.78802814e-01        0.00002558     -0.00013003      0.00011373  
H      0.13020898     -3.61139850      3.60257906     -1.04512930e+01   -9.30266269e-01    2.23920658e+00        0.00002127     -0.00014475      0.00011704  
H      0.07166853     -3.62049875      3.51342042     -1.45699455e+01   -7.73163013e+00    2.64653555e+00        0.00003103     -0.00018839      0.00014621  
H     -0.00944967     -3.63805760      3.45273236     -5.03968176e+00   -3.84010995e+00   -1.78776842e+00        0.00001800     -0.00013093      0.00011552  
H      0.06543191     -3.54124483      3.45620589     -9.61121438e+00   -8.52443763e-02    8.87437375e+00        0.00001898     -0.00013240      0.00011616  
H      0.01553288     -3.52653682      3.48821386      6.68242103e+00   -5.64132782e+00    9.69121827e+00        0.00000822     -0.00013044      0.00012741  
H     -0.03353318     -3.47958336      3.45347452      1.62439127e+00   -3.53328418e-01    8.04682375e+00        0.00001363     -0.00013683      0.00012916  
H      0.05036748     -3.51354495      3.50857766     -7.15249615e+00   -9.63185444e+00    1.02672766e+01        0.00003584     -0.00017025      0.00015603  
H      0.10024660     -3.53444982      3.64677352     -4.83259642e+00   -1.08278076e+00   -7.66617361e+00        0.00002902     -0.00014761      0.00013741  
H      0.03066169     -3.43127602      3.73246347      7.09375217e+00    3.21414753e+00   -1.10380877e+00        0.00003831     -0.00016917      0.00015405  
H      0.07326436     -3.24613748      3.86118848      3.00643454e+00    1.31144525e+00    1.35501228e+00        0.00003701     -0.00015833      0.00014983  
H      0.04582213     -3.29625522      3.81059981      2.14382206e-01    7.23641859e+00   -3.79628213e+00        0.00006014     -0.00021707      0.00023079  
H      0.03543211     -3.28187302      3.76173509      6.96707437e+00    1.57101763e+01    5.41475441e+00        0.00007335     -0.00025972      0.00029694  
H      0.06185634     -3.29005199      3.70845189      1.44114523e+01   -4.65986254e+00   -1.37219446e-01        0.00007414     -0.00024629      0.00028222  
H     -0.02410607     -3.26808230      3.73784482      6.75154770e+00    6.15631823e+00   -5.55876926e+00        0.00006653     -0.00024239      0.00027966  
H      0.00180678     -3.32840952      3.70905702      2.02217913e+00   -6.57008097e+00    4.55282118e+00        0.00006094     -0.00024817      0.00027836  
H     -0.07513873     -3.20045901      3.69493288     -4.85847066e+00    1.05791262e+01    2.92900829e+00        0.00004150     -0.00021914      0.00023694  
H     -0.05784016     -3.29893542      3.70175453      7.67032724e+00    5.87111824e+00   -7.44319736e+00        0.00002045     -0.00017873      0.00018855  
H     -0.08947472     -3.43776993      3.71725782     -6.20943967e+00    7.11771025e+00    2.83321314e+00        0.00002584     -0.00015730      0.00016022  
H     -0.04109321     -3.38273828      3.71737917     -1.00027094e+01   -8.99688040e+00   -8.43119710e-01        0.00003475     -0.00016199      0.00016770  
H     -0.03991474     -3.35455427      3.68682384     -7.66547278e+00   -3.40202317e+00   -8.07031253e+00        0.00004449     -0.00026943      0.00025683  
H      0.04722522     -3.37682816      3.73197589      9.62470601e+00    8.73755953e+00   -5.27817678e-01        0.00004433     -0.00022750      0.00021711  
H      0.02974272     -3.49447698      3.74017739      2.43442385e+01    2.06702086e+00   -3.23809172e+00        0.00003520     -0.00028655      0.00026217  
H      0.02214258     -3.47269360      3.84733833      4.10429129e+00   -2.00617543e+00   -1.72366712e+01        0.00004048     -0.00029171      0.00029354  
H      0.10841188     -3.49813475      3.84952735      9.12030138e+00    9.99753437e+00    3.10416313e+00        0.00003301     -0.00025866      0.00024674  
