3
100000  xi=   0.07752023  Mean pot=  -105.85459918  Cent pot=  -108.53303862 kcal/mol
H      0.21063798      5.14911503     -0.48317339       0.19598338
H      0.00231108      4.65854677      0.10340006       0.20249592
H     -0.21294907     -9.80766180      0.37977333       0.19078919
3
200000  xi=   0.07645965  Mean pot=  -105.75887599  Cent pot=  -109.13644934 kcal/mol
H     -3.40664625      1.17771878      3.79957340       0.13249767
H     -2.93090299      0.77587387      3.45234045       0.15088334
H      6.33754924     -1.95359265     -7.25191384       0.19980680
3
300000  xi=   0.07520901  Mean pot=  -106.14923433  Cent pot=  -109.26699554 kcal/mol
H     -3.18581767      3.35989412      1.75841209       0.15652135
H     -3.25551646      2.86599858      2.27572701       0.23719743
H      6.44133413     -6.22589270     -4.03413910       0.21651619
3
400000  xi=   0.07751205  Mean pot=  -106.97953822  Cent pot=  -109.49737034 kcal/mol
H     -3.86586761      2.13092938     -1.26149244       0.16631365
H     -4.20755825      2.58137078     -1.73996530       0.15161674
H      8.07342586     -4.71230016      3.00145774       0.19329912
3
500000  xi=   0.08196550  Mean pot=  -107.41009735  Cent pot=  -108.24096117 kcal/mol
H      0.46032967      4.96008590      0.23295864       0.15849830
H     -0.20187696      4.78796094      0.14661110       0.18169503
H     -0.25845270     -9.74804684     -0.37956975       0.18377849
3
600000  xi=   0.08056783  Mean pot=  -106.31579831  Cent pot=  -107.49008271 kcal/mol
H     -2.02822787      4.54939320      1.27228604       0.21653649
H     -1.98032704      3.92249677      1.52301199       0.17430963
H      4.00855491     -8.47188997     -2.79529804       0.30632800
3
700000  xi=   0.07480154  Mean pot=  -107.49147442  Cent pot=  -109.05127204 kcal/mol
H      2.80712258     -3.02706259      3.25920237       0.20895150
H      2.30816675     -2.79503944      2.81065017       0.16608232
H     -5.11528933      5.82210203     -6.06985254       0.20095744
3
800000  xi=   0.06769529  Mean pot=  -106.70088185  Cent pot=  -109.39962271 kcal/mol
H     -1.91744408     -3.84541544      2.66807307       0.15873061
H     -1.19363890     -3.90615921      2.65384848       0.21294978
H      3.11108298      7.75157465     -5.32192154       0.13847634
3
900000  xi=   0.08095631  Mean pot=  -106.28839327  Cent pot=  -108.40131711 kcal/mol
H      1.37627005     -4.46202853      0.88129786       0.17837500
H      0.99932348     -4.91324900      0.51468489       0.16514666
H     -2.37559353      9.37527752     -1.39598275       0.15370841
3
1000000  xi=   0.07152226  Mean pot=  -107.38031741  Cent pot=  -109.21525694 kcal/mol
H     -4.04218622      0.02441499      2.79061189       0.21296663
H     -4.45099491      0.16122111      2.21864469       0.13007506
H      8.49318113     -0.18563609     -5.00925658       0.19644076
3
1100000  xi=   0.08654989  Mean pot=  -107.30870473  Cent pot=  -109.49715927 kcal/mol
H     -1.85265227     -1.88799832     -3.98250574       0.23908197
H     -2.36256897     -1.37471477     -4.13986614       0.17072980
H      4.21522125      3.26271309      8.12237188       0.19698374
3
1200000  xi=   0.08944698  Mean pot=  -106.94741684  Cent pot=  -109.08078736 kcal/mol
H      1.83806870      2.14134970      3.97312721       0.13841547
H      2.44837345      1.88038163      3.71841391       0.25256383
H     -4.28644215     -4.02173133     -7.69154112       0.23403825
3
1300000  xi=   0.07124246  Mean pot=  -106.37347218  Cent pot=  -109.44585452 kcal/mol
H      0.90856052     -4.04174895      2.28587848       0.19747378
H      0.44593416     -4.32971580      2.77248158       0.14565997
H     -1.35449468      8.37146475     -5.05836006       0.17464735
3
1400000  xi=   0.08415714  Mean pot=  -103.77206819  Cent pot=  -109.49425495 kcal/mol
H      3.10156911      2.69933599      3.04534717       0.15659842
H      2.69763607      2.88076639      2.45404073       0.23247786
H     -5.79920518     -5.58010238     -5.49938790       0.19549762
3
1500000  xi=   0.07459039  Mean pot=  -107.14122666  Cent pot=  -109.49768438 kcal/mol
H     -2.65452878      3.60945220     -2.76880382       0.14984836
H     -2.49102055      2.94926371     -2.47415031       0.24505399
H      5.14554934     -6.55871591      5.24295414       0.19846396
3
1600000  xi=   0.08183594  Mean pot=  -106.61908530  Cent pot=  -109.47399665 kcal/mol
H      3.58195180      0.86771052      2.66481792       0.16748770
H      4.23139752      1.15416575      2.85214190       0.18271772
H     -7.81334932     -2.02187626     -5.51695982       0.25802946
3
1700000  xi=   0.08298219  Mean pot=  -104.73546941  Cent pot=  -108.68714153 kcal/mol
H     -0.01369857      4.18757812      2.97581138       0.13686302
H     -0.32727493      3.47060662      3.06909155       0.16992767
H      0.34097350     -7.65818474     -6.04490292       0.23940375
3
1800000  xi=   0.08480894  Mean pot=  -107.39845338  Cent pot=  -109.27195095 kcal/mol
H      4.50269985      1.82033951      0.27108150       0.25808147
H      4.63953378      1.33118678      0.77976595       0.23319754
H     -9.14223363     -3.15152629     -1.05084745       0.20818120
3
1900000  xi=   0.07892163  Mean pot=  -106.91555966  Cent pot=  -109.14014092 kcal/mol
H     -0.92652366      4.33943357      2.52264090       0.11944119
H     -0.32408315      4.15910161      2.18629267       0.23590611
H      1.25060681     -8.49853518     -4.70893356       0.21932440
3
2000000  xi=   0.07971722  Mean pot=  -106.33526392  Cent pot=  -107.89986455 kcal/mol
H      0.94543120      4.86831016      0.76665594       0.15176518
H      1.50381492      4.49885923      0.62962275       0.21383867
H     -2.44924612     -9.36716938     -1.39627869       0.17883988
