96
100000  xi=   0.67408033  Mean pot=  -106.13616908  Cent pot=  -109.49087294 kcal/mol
H     -0.13536839      1.11258137     -2.05003419      1.97884522e+00    1.71655474e+00   -4.15434466e+00       -2.54713635    -11.02254896     17.27583542  
H     -0.21584764      1.02718258     -2.06115826     -8.36247800e+00   -5.47822826e-01    8.23534194e+00       -0.12603477      0.89911469     -1.93412636  
H     -0.17412696      1.09328588     -2.09300084     -1.06087119e+01    3.53380707e+00    3.14821191e+00       -9.67717778     37.73780012    -70.96793328  
H     -0.15451970      1.07487515     -2.06302259     -2.56634466e+00    3.65991940e+00   -1.01878230e+01        3.11888841     28.63166175    -57.75355774  
H     -0.08909176      1.01495561     -2.05290878      1.13223519e+01   -8.69096667e-02    1.70231273e+01        4.64325697     15.46383435    -40.37437980  
H     -0.09293863      1.20286098     -2.06433012      6.84978792e-01    4.15269794e+00    1.48407641e+01       12.32503498     25.61598691    -47.45841020  
H     -0.06984332      1.23546160     -2.17952091     -2.77081270e+00   -3.63014879e+00   -1.91452374e+00       15.67272881     17.78501950    -57.03719220  
H     -0.02220543      1.15116409     -2.10735461     -2.07861259e+00   -3.35057274e+00   -2.37712037e+00       15.69045633      6.84418879    -30.14983711  
H     -0.06738287      1.13951223     -2.03051317     -6.95334824e+00    2.00376701e+00   -6.37809876e+00      -16.98297318    -15.26807940     34.30007044  
H     -0.19705100      1.17154032     -1.96313614      6.92099643e+00   -8.48338028e-01   -5.87413139e+00      -47.50932104    -32.44647331     76.63786468  
H     -0.11724509      1.01628551     -1.96047237     -1.13692605e+00   -5.82486285e+00   -4.69467061e+00      -60.49593013      0.42707898     55.03991497  
H     -0.17747781      1.09342610     -2.00593105      8.58382219e-02    6.00929800e+00    3.63485522e+00      -10.86532723     -0.97802535     12.25869607  
H     -0.25779404      1.04059434     -1.97807320      1.25547455e+00    1.23899611e+00   -1.50950528e+01       14.87857408      0.92777775    -19.52567794  
H     -0.31781455      1.05997155     -2.14626596     -7.57438415e-02   -1.24535142e+01   -7.86412655e+00       42.90455171     10.35749106    -79.06537815  
H     -0.31209294      1.12708895     -2.03671219     -1.39388227e+01    1.23336051e+01    4.90231426e+00       43.65296463     22.14488111    -61.01079616  
H     -0.28796323      1.07074410     -1.98926203      6.55271960e+00   -1.62592742e+00    1.10671751e+01       24.23502093     12.54038645    -42.82630521  
H     -0.32500546      1.14798492     -2.04795285     -7.15261649e+00   -1.69403086e+01    7.77205526e+00       13.03667506     11.00588982    -42.09683274  
H     -0.38372368      1.08731382     -1.99925692     -2.76846779e+00    5.35664680e+00    2.00599276e+00        3.20966365      2.07586594    -11.65658648  
H     -0.29795353      1.06671280     -1.93808901     -1.83507507e+00   -1.27274564e+01    2.01634843e+00        9.89611858      8.71604187    -24.68256303  
H     -0.28392418      1.05042221     -1.94075901     -3.65897662e+00   -3.76627503e+00   -5.07123359e+00       25.34296577     19.23745433    -48.61921336  
H     -0.22227514      1.00559356     -1.89881707      6.61650180e+00   -6.33273989e+00   -3.91954561e+00       37.19723074     15.17843125    -47.84022999  
H     -0.21174187      1.03625053     -1.89708110      3.01608002e-01    5.65046804e+00    8.59437252e-01       35.98450448     26.52677434    -49.88436947  
H      0.02749479      1.06046200     -1.83844857      7.42034885e+00   -3.24458672e+00   -7.96653265e+00       73.46499974     31.06598929    -50.56237721  
H      0.08548812      0.95589065     -1.75787290      7.00012760e+00    3.62644973e+00    4.96261409e+00       67.00810146      2.25338800    -36.77995589  
H      0.16504107      0.93390282     -1.77770061     -4.57671843e+00    4.70126760e+00    3.50557200e+00       72.51292339      0.70018252    -42.88167531  
H      0.14115648      1.00156074     -1.85533782      1.37681981e+01    2.54559049e+00   -2.41878150e+00        6.46983217      1.19251953     -3.48133080  
H      0.09516150      1.15582953     -1.83619380     -3.36343029e+00   -1.00580493e+00   -1.73515837e+00        1.62373951      0.47795463     -0.81071173  
H     -0.03490263      1.17515216     -1.89185778      8.27346426e+00   -9.79283711e+00   -1.88608240e+00      -22.72513347    -23.46372769     30.23286190  
H     -0.11556940      1.05334478     -1.94752003     -4.33509625e+00    1.95802201e+01    5.97007469e+00      -75.63141528    -67.09866500    162.48651925  
H     -0.11834141      0.96288014     -1.99272609     -2.51566070e+00    6.37852733e+00   -3.06965304e+00       -6.15946797     -8.06519195     29.64128215  
H     -0.19471296      1.01362219     -1.93841657     -7.24112406e-01    3.98133199e+00   -1.29900142e+00      -14.46094336    -29.30594328     64.89894683  
H     -0.17407540      1.00518735     -2.01710666      5.26133358e+00    3.93006676e+00   -2.64777182e+00      -20.63757684    -38.68335699     77.61296989  
H     -0.22404214      0.72904807     -1.44893810      4.21908922e+00   -2.44750990e+00   -5.78222208e+00        2.54649739     11.02389345    -17.27841271  
H     -0.17175651      0.71388993     -1.38752792     -1.18749235e+01   -5.58693078e+00   -2.13391442e+00        0.12540068     -0.89740159      1.93113447  
H     -0.06662405      0.67406332     -1.30463339     -3.62518307e+00   -7.67431500e+00   -1.02463371e+01        9.67654529    -37.73570150     70.96429566  
H     -0.19562624      0.69741749     -1.30165355      4.70770054e+00   -9.75590171e-01   -3.02386554e+00       -3.11969362    -28.62909476     57.74932943  
H     -0.17512576      0.72835025     -1.30465078     -1.32015538e+01    6.23713590e+00    8.45747577e-01       -4.64410277    -15.46136659     40.37042781  
H     -0.27770746      0.81879607     -1.35278337     -1.96103596e+00    5.75171026e+00   -5.37711273e-01      -12.32601930    -25.61374115     47.45474241  
H     -0.28399150      0.99242279     -1.40011953      9.63806814e+00   -3.66623742e+00    5.67378908e+00      -15.67367282    -17.78282747     57.03387039  
H     -0.37992240      0.99510245     -1.41993850      6.35719125e+00   -8.25060627e+00   -5.16606976e+00      -15.69118136     -6.84257164     30.14749935  
H     -0.35529466      0.88071090     -1.44909145     -6.35086627e+00   -4.98641441e+00   -2.96994015e+00       16.98209644     15.26992181    -34.30289643  
H     -0.52193760      0.94967148     -1.43907848     -7.12846123e+00   -1.71145750e+00   -7.66504402e-01       47.50842134     32.44831242    -76.64055971  
H     -0.60934411      1.01975844     -1.51275281      2.63524208e+00    3.91000480e+00    1.03854611e+01       60.49533102     -0.42542681    -55.04237226  
H     -0.65619125      1.05034117     -1.46583825     -3.10293070e+00    2.81781861e-01    1.28318940e+01       10.86453270      0.97985393    -12.26140677  
H     -0.72690989      1.01133678     -1.36242567      3.72671133e+00   -7.26326164e+00   -7.41405852e+00      -14.87954941     -0.92560787     19.52246174  
H     -0.76267923      0.95257553     -1.32645555     -1.13087283e+01    5.44325537e+00   -1.13042318e+01      -42.90579557    -10.35479601     79.06130961  
H     -0.80876442      0.87512642     -1.34254055     -5.35538417e+00    1.52772664e+01   -2.50756349e+00      -43.65419567    -22.14255218     61.00716048  
H     -0.67926758      0.86824930     -1.29774954     -1.21041242e+00    2.33812486e+00    1.02115759e+01      -24.23611927    -12.53832028     42.82309581  
H     -0.55731254      0.95183179     -1.29773422      2.77387784e-01   -1.17781745e+00   -9.73695499e+00      -13.03766744    -11.00383149     42.09366821  
H     -0.58175456      0.95911839     -1.27975044     -5.56872339e+00   -4.40871175e+00    2.69498184e+00       -3.21067010     -2.07398371     11.65348693  
H     -0.57365853      0.82383076     -1.25032126     -4.05728023e+00   -3.27350538e+00   -3.39170823e-01       -9.89729935     -8.71392637     24.67884806  
H     -0.64834463      0.77377909     -1.24160171     -1.11742256e+01   -2.48866681e+00    5.99664000e+00      -25.34428263    -19.23515655     48.61504741  
H     -0.72583813      0.80010920     -1.25116452     -7.86094392e+00   -7.27771619e-02   -1.41420695e+00      -37.19855599    -15.17605218     47.83597593  
H     -0.67214217      0.69684803     -1.25882469     -5.23691036e-01   -5.80914218e-01    9.24559002e+00      -35.98586391    -26.52430813     49.87966457  
H     -0.71886459      0.74485541     -1.32477450      1.44311944e+00    8.59569800e+00   -7.22165351e+00      -73.46609219    -31.06357079     50.55793613  
H     -0.68938914      0.92984069     -1.33256820     -9.60369205e-01    1.61046695e+01   -3.78166788e+00      -67.00905039     -2.25085865     36.77530886  
H     -0.61958824      0.92633366     -1.31371171      5.00730042e+00    2.73009257e+00   -8.17237048e+00      -72.51378833     -0.69767336     42.87722357  
H     -0.51156172      0.88128103     -1.50417212      1.97332608e-01   -7.96952628e+00    3.61521661e+00       -6.47032714     -1.19094524      3.47856872  
H     -0.54855096      0.96645900     -1.51498490      7.93843561e+00   -1.05632595e+01   -1.03214795e+01       -1.62423986     -0.47648832      0.80817412  
H     -0.39004983      0.80849031     -1.41942699     -7.26526190e+00   -8.59947453e+00    9.55880305e+00       22.72420651     23.46567781    -30.23647724  
H     -0.35290894      0.84279094     -1.43763732      3.56919584e+00    4.02876232e+00    1.18358002e+01       75.63053753     67.10038856   -162.48949901  
H     -0.25753014      0.78070207     -1.32307873      8.02261329e+00    1.20886346e+01   -1.06618905e+00        6.15858769      8.06745658    -29.64486199  
H     -0.32850292      0.74252964     -1.33806355      1.60467489e+01   -6.97540733e+00   -9.13909178e-01       14.46007564     29.30782730    -64.90222963  
H     -0.32688638      0.71878611     -1.44247802      3.42735152e+00   -3.83484947e+00    1.30935589e+00       20.63676762     38.68490251    -77.61576878  
H      0.69947285     -1.99539857      3.58985100      1.77442511e+01    7.14935893e+00   -7.78418715e-01        0.00063897     -0.00134449      0.00257729  
H      0.74514074     -2.01118183      3.53323390     -2.90383154e+00   -9.66263800e+00   -3.78666067e+00        0.00063409     -0.00171310      0.00299189  
H      0.73561897     -2.03854596      3.44734180      5.26235244e+00    2.08478875e+01    3.53129410e+00        0.00063249     -0.00209861      0.00363762  
H      0.54912705     -2.04908122      3.32456524      3.53090469e+00    1.03177118e+01    1.76850835e+00        0.00080521     -0.00256699      0.00422831  
H      0.62428961     -2.03781423      3.35858477      4.59980519e+00   -8.38086636e+00    8.99183249e+00        0.00084579     -0.00246776      0.00395199  
H      0.69901387     -1.99622728      3.30611070      9.93525795e-01   -8.87974552e+00    5.24715255e+00        0.00098433     -0.00224576      0.00366779  
H      0.75681291     -1.90296848      3.25332332     -2.50697216e+00    7.16118882e+00    7.25968371e+00        0.00094400     -0.00219203      0.00332181  
H      0.76200242     -2.09794876      3.31570786      2.53701785e+00   -8.07596452e-01   -4.67783392e-01        0.00072503     -0.00161716      0.00233776  
H      0.70701670     -2.08618429      3.25854849     -1.03578397e+01   -6.21577633e-01    1.95261987e+00        0.00087674     -0.00184241      0.00282599  
H      0.64850832     -2.09522183      3.16937349     -1.44801103e+01   -7.43310386e+00    2.35758559e+00        0.00089971     -0.00183911      0.00269502  
H      0.56734600     -2.11280188      3.10869885     -4.94395735e+00   -3.53478401e+00   -2.07399433e+00        0.00059911     -0.00165218      0.00245729  
H      0.64226948     -2.01597045      3.11211037     -9.52315528e+00    2.16216615e-01    8.58732798e+00        0.00079453     -0.00182858      0.00271070  
H      0.59234525     -2.00123018      3.14415473      6.77692078e+00   -5.34088299e+00    9.40450451e+00        0.00097532     -0.00216988      0.00321620  
H      0.54328758     -1.95433391      3.10937865      1.71567324e+00   -4.74500824e-02    7.75776721e+00        0.00124386     -0.00269505      0.00406854  
H      0.62721139     -1.98823442      3.16449985     -7.06065746e+00   -9.33273000e+00    9.98155849e+00        0.00123104     -0.00232892      0.00363569  
H      0.67705788     -2.00919534      3.30272996     -4.73954619e+00   -7.77528742e-01   -7.95496529e+00        0.00109835     -0.00206617      0.00320940  
H      0.60752341     -1.90602813      3.38839638      7.18357928e+00    3.51243684e+00   -1.38896179e+00        0.00099238     -0.00205833      0.00316454  
H      0.65009248     -1.72087803      3.51719165      3.10035569e+00    1.61417917e+00    1.06637545e+00        0.00100645     -0.00188223      0.00309955  
H      0.62266323     -1.77105297      3.46656854      3.05384299e-01    7.53961724e+00   -4.08564627e+00        0.00118077     -0.00211550      0.00371497  
H      0.61228932     -1.75662899      3.41773604      7.05904628e+00    1.60095287e+01    5.12979628e+00        0.00131687     -0.00229778      0.00416595  
H      0.63867186     -1.76486477      3.36447247      1.45028932e+01   -4.35701765e+00   -4.29035590e-01        0.00132525     -0.00237907      0.00425406  
H      0.55275217     -1.74288355      3.39384184      6.84265897e+00    6.45686306e+00   -5.84300665e+00        0.00135943     -0.00246621      0.00470490  
H      0.57862526     -1.80322236      3.36511562      2.11473512e+00   -6.26768159e+00    4.26012596e+00        0.00109245     -0.00241850      0.00444108  
H      0.50169438     -1.67532986      3.35096662     -4.76614899e+00    1.08804415e+01    2.64382165e+00        0.00094893     -0.00252935      0.00464704  
H      0.51899556     -1.77376046      3.35783863      7.76164677e+00    6.17279057e+00   -7.73127781e+00        0.00086495     -0.00250916      0.00445174  
H      0.48733511     -1.91265126      3.37333864     -6.11606140e+00    7.41783175e+00    2.54443740e+00        0.00049497     -0.00157429      0.00276209  
H      0.53576358     -1.85757908      3.37343466     -9.91083363e+00   -8.69387271e+00   -1.12692252e+00        0.00050035     -0.00146631      0.00253761  
H      0.53689833     -1.82939178      3.34292564     -7.57254690e+00   -3.10131658e+00   -8.36295511e+00        0.00092696     -0.00195012      0.00361534  
H      0.62407062     -1.85169606      3.38801965      9.71794540e+00    9.04125738e+00   -8.09979648e-01        0.00087775     -0.00172355      0.00297975  
H      0.60658496     -1.96928817      3.39625711      2.44343154e+01    2.36563439e+00   -3.52752005e+00        0.00088028     -0.00226463      0.00357984  
H      0.59896104     -1.94754947      3.50340892      4.19829516e+00   -1.70507551e+00   -1.75214720e+01        0.00086772     -0.00188402      0.00328280  
H      0.68527292     -1.97294349      3.50557812      9.21027057e+00    1.02997063e+01    2.81829332e+00        0.00080922     -0.00154552      0.00279888  
