96
100000  xi=   0.52640298  Mean pot=  -107.21096610  Cent pot=  -109.44608536 kcal/mol
H      0.45677720      1.81872699     -2.06040680      7.21437317e+00   -1.10596685e+01   -1.71255098e+01      -14.76219037      6.36979086     11.99743492  
H      0.46913378      1.67905872     -2.03386365     -1.37056449e+01    1.38737451e+00    5.40458119e+00       38.70615508    -27.07222345    -28.41117865  
H      0.46329498      1.76615191     -2.05224802     -6.23248378e+00   -4.89448157e+00    3.58487422e+00      -13.96350373      8.54584398     16.97660828  
H      0.48384859      1.79826476     -2.05025967     -6.06035729e+00   -1.81588720e+00   -5.03648358e+00       34.27070977    -11.93911753    -32.48145169  
H      0.50337791      1.78455119     -2.08995538      8.42835320e+00    3.66989320e+00    9.84830323e+00       38.90852301    -14.64697483    -46.52401125  
H      0.37906177      2.02464742     -2.13841402     -5.81539172e-01    3.95662521e+00    9.18001898e+00       11.03418144      0.09697983    -19.14196755  
H      0.42080218      2.13138577     -2.20503888      6.25382641e-01    2.82546078e+00    3.62759693e+00       17.08914984      0.40120780    -24.15928698  
H      0.45226238      2.09853682     -2.17885630     -5.11715139e+00   -8.61602617e-01   -6.44925043e+00       42.89053801      2.02292834    -48.64991736  
H      0.35528932      2.03221638     -2.17248002      8.35639731e-01    1.36354608e+00   -9.47442245e+00       13.52989267      0.69328409    -23.39695495  
H      0.18835369      2.06241825     -2.10296517      4.48291849e+00   -5.12634574e+00   -3.97882650e+00      -16.47688964      0.96762275     28.63567922  
H      0.28129410      2.01932865     -2.12138493      8.80433210e+00   -4.65287036e-01   -1.06703706e+00       25.53874146     -1.01374006    -27.04937566  
H      0.21730743      2.03484053     -2.10530210      6.82997888e+00   -1.69776333e+00    9.23095426e-01       11.94062962     -2.23998307    -12.44929431  
H      0.14618154      1.94124616     -2.02879331      1.23475611e+00    1.16795661e+00   -9.23759696e+00       16.29665626     -5.91970915    -16.04558029  
H      0.10171762      1.89559360     -2.16355392     -7.58061876e+00   -2.23696094e+00   -1.89894615e+00       47.40077527    -21.55667316    -58.13682032  
H      0.03343587      1.95918815     -2.08868529     -5.09913760e+00    1.30893738e+01   -8.87983445e+00        8.02785047     -1.95549160    -10.95852170  
H      0.12083161      1.87365738     -1.96189988     -4.53183041e+00    1.12272022e+00    8.53341906e+00      -43.91803741     20.39077902     42.01155784  
H      0.20561016      1.91751346     -1.97980360     -3.85102451e+00   -1.20612010e+01   -3.93060714e+00        5.50935414     -2.89663570     -4.22889270  
H      0.13913668      1.82226415     -1.87268430      6.15497229e+00    1.63766252e+00    8.66190108e-01      -18.99725937     16.19129003     10.42857099  
H      0.18474583      1.84407043     -1.91090264     -6.69482278e+00   -8.11223960e+00   -5.93851879e+00      -26.01442205     11.85563183     23.09841151  
H      0.13228046      1.88369828     -1.89392513     -9.14731550e+00   -1.21177313e+01    4.20179954e+00     -113.87130283     20.36914087    103.93825973  
H      0.17446399      1.91248821     -1.87046804     -1.56775807e+00    9.28571066e+00    5.71738944e+00      -48.66677656      0.43329436     35.11252836  
H      0.26542512      1.91092323     -1.90261750      3.65801339e+00    2.92218431e+00    5.06917793e+00       39.65342212      3.81234804    -27.03503532  
H      0.44499524      1.99130530     -1.88996498      5.85642692e+00    1.42943535e+00   -1.00692695e+01       81.89341894     14.97038176    -41.54179432  
H      0.42891387      1.93919303     -1.79354109      3.32473679e+00    5.04770941e+00    4.85212225e+00       26.27236807     -1.15307635    -11.15682211  
H      0.49724294      1.96816229     -1.87301764      2.84979346e+00    9.73912697e+00   -9.70130573e-01       51.96202726      3.82459663    -34.09530997  
H      0.50952504      1.89023896     -2.01013010      1.29641634e+01   -9.75749275e-01    1.66705371e+00       35.66695910     -6.98760115    -25.90938401  
H      0.46812184      2.03207361     -1.90364177     -4.66473997e+00   -3.58004339e+00    7.92286579e+00      -33.65208605      4.28919540     13.77056968  
H      0.47916599      1.80439781     -1.90289987      3.68564475e+00   -1.50066551e+01    1.04397922e-01       36.93200879    -23.04145568    -17.48364780  
H      0.39035227      1.80398599     -1.87985144     -3.98301035e+00    1.37904570e+01   -3.52419523e+00     -122.30241747     75.57832703     44.23413291  
H      0.41792130      1.73276467     -1.90388270      5.90947718e+00    7.43816218e+00   -6.56223534e+00      -96.81507451     62.52173346     62.08999323  
H      0.37849268      1.72774672     -1.89534560      1.26983259e+01    1.62234546e+00   -1.13767509e+01      -25.92990398     15.70188827     15.58886978  
H      0.38114805      1.69123707     -2.02853588      6.48901822e+00    6.81714378e-01   -3.01768942e+00        6.70728294     -4.72116089     -5.23721314  
H     -0.07241706      2.04706957     -1.63032214     -9.26282737e-01    1.06174099e+01    6.90756442e+00       14.76219343     -6.36973675    -11.99748716  
H     -0.11299390      2.08621644     -1.60656942     -6.43877854e+00   -7.23124189e+00    4.17590355e-01      -38.70615313     27.07228641     28.41111958  
H      0.03966646      2.02541670     -1.53720602     -7.90771622e+00    1.04189352e+00   -1.09634406e+01       13.96350723     -8.54578314    -16.97666522  
H     -0.09019588      1.99824918     -1.50618635      8.29237024e+00    4.79526971e+00   -8.45895942e+00      -34.27070466     11.93918740     32.48138908  
H     -0.02390085      1.98304385     -1.45947376     -1.02116802e+01    2.76995915e+00    7.73878559e+00      -38.90851901     14.64704642     46.52394762  
H     -0.00593194      2.02126169     -1.47052986     -6.03161631e-01    6.24118115e+00    4.84190282e+00      -11.03418456     -0.09689795     19.14190653  
H     -0.03090759      2.12077977     -1.56644650      6.33434283e+00   -9.82866516e+00   -1.53150042e-01      -17.08915337     -0.40113140     24.15922782  
H     -0.11068630      2.07198521     -1.54031421      9.49106330e+00   -1.04493646e+01   -1.37301752e+00      -42.89054066     -2.02286250     48.64986512  
H     -0.03420024      2.01225696     -1.49894273     -1.40504972e+01   -4.04899679e+00   -1.59478158e-01      -13.52989622     -0.69320515     23.39689718  
H     -0.16367151      2.08309199     -1.49117061     -4.59361988e+00    2.85469988e+00   -2.94262825e+00       16.47688701     -0.96754968    -28.63573313  
H     -0.26411823      2.04097843     -1.54371114     -7.21527927e+00   -1.15312629e+00    6.47660042e+00      -25.53874221      1.01381285     27.04931828  
H     -0.30727186      2.13324945     -1.55837709     -9.75523455e+00    8.27762706e+00    1.52594507e+01      -11.94062941      2.24005324     12.44923598  
H     -0.38717462      2.13498770     -1.50365568      3.84303049e+00   -6.89975115e+00   -1.35486051e+01      -16.29665490      5.91978386     16.04551617  
H     -0.43844246      2.14124528     -1.50105066     -3.71576270e+00   -4.47943596e+00   -1.75580510e+01      -47.40077431     21.55675583     58.13674871  
H     -0.41061553      2.06735510     -1.48252816     -1.40965525e+01    1.48107673e+01    1.09977914e+01       -8.02785262      1.95556772     10.95845870  
H     -0.34427657      2.08960272     -1.51698157      9.96174020e+00   -1.14623932e-01    1.24604806e+01       43.91803806    -20.39071143    -42.01161822  
H     -0.34421097      2.20659527     -1.55777324     -2.92959047e+00   -5.77104738e+00    1.68431258e+00       -5.50935271      2.89670183      4.22883281  
H     -0.36087358      2.24842039     -1.59820248     -1.43983663e+01   -3.94637984e-01    3.55507508e+00       18.99725801    -16.19122015    -10.42863524  
H     -0.31258021      2.07071733     -1.46932198      8.91290929e-01   -7.59786471e+00    7.32671430e+00       26.01442414    -11.85555740    -23.09848247  
H     -0.32085192      1.96475381     -1.48031954     -5.58773914e+00    6.15296328e+00   -3.55193939e+00      113.87130339    -20.36906316   -103.93833194  
H     -0.37878465      1.91741362     -1.47130511      4.09035694e-01   -1.53982699e+01   -1.13399952e+01       48.66677522     -0.43320836    -35.11260616  
H     -0.40560512      1.84640928     -1.44512042     -3.78332756e+00    2.43604113e+00    4.75631579e+00      -39.65342561     -3.81224830     27.03494574  
H     -0.39261940      1.83818679     -1.46507121      3.09820026e+00    4.21616535e+00   -5.40339498e+00      -81.89342081    -14.97027949     41.54170290  
H     -0.28905924      1.97070598     -1.48864809      2.80630658e+00    1.49720761e+01   -3.95558950e+00      -26.27236148      1.15317284     11.15673306  
H     -0.20810651      1.91624604     -1.41019688     -2.32247737e+00   -2.01501736e+00   -3.97498553e+00      -51.96202634     -3.82449737     34.09522344  
H     -0.13614459      2.01673437     -1.54109988      1.08906543e+00   -4.15869977e+00   -7.56987180e-01      -35.66695349      6.98767214     25.90931941  
H     -0.17781746      2.11440222     -1.63932003      9.33792349e+00   -7.69753315e+00   -2.02576612e+01       33.65209141     -4.28912997    -13.77062909  
H     -0.16036612      2.20339512     -1.60014525     -2.58703645e+00   -3.09324525e+00    7.28326196e+00      -36.93200463     23.04153436     17.48357754  
H     -0.11507755      2.11632267     -1.69704836      3.31056542e+00    1.01095740e+01    2.10491020e+01      122.30241914    -75.57825759    -44.23419553  
H     -0.05009315      2.03500127     -1.60373287     -3.07952804e-01    1.13188375e+01    2.14688841e+00       96.81507825    -62.52166427    -62.09005605  
H     -0.15791821      2.05257036     -1.57285865      2.71291643e+00   -4.32621209e+00    8.88086472e+00       25.92990686    -15.70182128    -15.58893180  
H     -0.13841715      2.05695432     -1.62284889      2.29640769e+00   -2.95475605e-01    1.39986054e+00       -6.70728078      4.72122426      5.23715321  
H     -0.04426045     -4.01960239      3.78161003      1.76508706e+01    6.86382915e+00   -4.97245423e-01       -0.00000306     -0.00005411      0.00005224  
H      0.00139871     -4.03536954      3.72500615     -2.99698271e+00   -9.95481376e+00   -3.50959253e+00       -0.00000194     -0.00006295      0.00005907  
H     -0.00813418     -4.06275352      3.63911707      5.17216970e+00    2.05589453e+01    3.81557885e+00       -0.00000349     -0.00006085      0.00005694  
H     -0.19460592     -4.07333716      3.51638382      3.43457993e+00    1.00256482e+01    2.04805896e+00       -0.00000511     -0.00006988      0.00006261  
H     -0.11947348     -4.06205765      3.55041788      4.50984314e+00   -8.67444166e+00    9.27676571e+00       -0.00000400     -0.00007159      0.00006364  
H     -0.04471380     -4.02052080      3.49795302      8.98004593e-01   -9.16956600e+00    5.52725388e+00        0.00000313     -0.00008188      0.00006102  
H      0.01307176     -3.92722645      3.44518489     -2.59842906e+00    6.86600674e+00    7.54306728e+00        0.00000353     -0.00007640      0.00005916  
H      0.01826977     -4.12220133      3.50754568      2.44416465e+00   -1.09805956e+00   -1.85289774e-01        0.00000265     -0.00006583      0.00005225  
H     -0.03669039     -4.11046251      3.45041581     -1.04523341e+01   -9.16356078e-01    2.23423622e+00        0.00000355     -0.00007894      0.00005777  
H     -0.09523272     -4.11947659      3.36125243     -1.45708107e+01   -7.72502358e+00    2.64204852e+00        0.00000263     -0.00007307      0.00005392  
H     -0.17636178     -4.13710964      3.30059078     -5.03963922e+00   -3.82737762e+00   -1.79458153e+00        0.00000075     -0.00007279      0.00005739  
H     -0.10146019     -4.04026263      3.30402752     -9.61283173e+00   -7.52013616e-02    8.87090431e+00       -0.00000021     -0.00007017      0.00005832  
H     -0.15138128     -4.02553906      3.33607175      6.68267259e+00   -5.63282473e+00    9.68445194e+00       -0.00000136     -0.00007470      0.00006412  
H     -0.20043026     -3.97864603      3.30130951      1.62317308e+00   -3.39558006e-01    8.04228221e+00       -0.00000097     -0.00008267      0.00007162  
H     -0.11653561     -4.01252236      3.35641421     -7.15319407e+00   -9.62544563e+00    1.02623531e+01        0.00000215     -0.00007612      0.00006300  
H     -0.06666383     -4.03350811      3.49462914     -4.83268405e+00   -1.06945103e+00   -7.67264331e+00       -0.00000064     -0.00006759      0.00006038  
H     -0.13623115     -3.93028346      3.58028378      7.09219010e+00    3.22339240e+00   -1.10736159e+00       -0.00000143     -0.00006613      0.00005989  
H     -0.09365086     -3.74514531      3.70904572      3.00673152e+00    1.32037921e+00    1.34827270e+00        0.00000136     -0.00006988      0.00006425  
H     -0.12107375     -3.79530902      3.65842742      2.13048566e-01    7.24978211e+00   -3.80050778e+00       -0.00000209     -0.00007443      0.00007096  
H     -0.13147370     -3.78084515      3.60957127      6.96656637e+00    1.57163652e+01    5.40954639e+00       -0.00000056     -0.00007771      0.00007221  
H     -0.10505224     -3.78910960      3.55630049      1.44112607e+01   -4.64602630e+00   -1.43329567e-01        0.00000134     -0.00008600      0.00007780  
H     -0.19100013     -3.76707604      3.58566203      6.75005494e+00    6.16461377e+00   -5.56244345e+00        0.00000348     -0.00009974      0.00008958  
H     -0.16510863     -3.82742022      3.55691211      2.02256310e+00   -6.56017075e+00    4.54603918e+00        0.00000187     -0.00010227      0.00009142  
H     -0.24203252     -3.69950044      3.54275428     -4.85991402e+00    1.05920266e+01    2.92481933e+00       -0.00000659     -0.00009649      0.00008905  
H     -0.22474758     -3.79790429      3.54959164      7.67004998e+00    5.87762286e+00   -7.44871484e+00       -0.00000092     -0.00009926      0.00008653  
H     -0.25638033     -3.93682651      3.56510090     -6.20982246e+00    7.13211506e+00    2.82716201e+00       -0.00000561     -0.00007099      0.00006461  
H     -0.20798757     -3.88172176      3.56519674     -1.00040668e+01   -8.98921175e+00   -8.46950566e-01       -0.00000535     -0.00006543      0.00005940  
H     -0.20682897     -3.85357276      3.53467873     -7.66511320e+00   -3.39109374e+00   -8.07726753e+00       -0.00000417     -0.00007868      0.00007025  
H     -0.11966676     -3.87586288      3.57979522      9.62313739e+00    8.74967951e+00   -5.31868242e-01       -0.00000167     -0.00006944      0.00006262  
H     -0.13716584     -3.99345158      3.58802007      2.43441532e+01    2.07404261e+00   -3.24389149e+00       -0.00000373     -0.00006919      0.00006283  
H     -0.14476001     -3.97175465      3.69517941      4.10370911e+00   -1.99183819e+00   -1.72424973e+01       -0.00000289     -0.00006700      0.00006202  
H     -0.05848389     -3.99711535      3.69734890      9.11906501e+00    1.00047082e+01    3.10023561e+00       -0.00000217     -0.00006337      0.00005993  
