3
100000  xi=   0.18043163  Mean pot=  -106.27267862  Cent pot=  -109.49239900 kcal/mol
H     -2.05617831      2.12225815      3.09114881       0.22515714
H     -2.22244053      2.78613643      2.79618863       0.16658452
H      4.27861883     -4.90839458     -5.88733745       0.19078870
3
200000  xi=   0.17255130  Mean pot=  -105.55052398  Cent pot=  -109.31552679 kcal/mol
H      1.62278438     -3.09147147     -2.26188108       0.16867078
H      1.73671819     -3.80104351     -2.20238532       0.15344079
H     -3.35950258      6.89251499      4.46426639       0.21414733
3
300000  xi=   0.17875493  Mean pot=  -105.28590433  Cent pot=  -109.34248963 kcal/mol
H     -2.16563695      1.81877585     -3.67278687       0.21155545
H     -1.48696098      1.99593626     -3.37657315       0.18515487
H      3.65259793     -3.81471211      7.04936002       0.24216725
3
400000  xi=   0.16977948  Mean pot=  -105.68117160  Cent pot=  -105.16592338 kcal/mol
H     -3.46139749     -2.48607730      1.35030699       0.19713555
H     -2.99955601     -2.74113620      1.72914156       0.12078768
H      6.46095350      5.22721350     -3.07944855       0.24168076
3
500000  xi=   0.17777791  Mean pot=  -106.41393518  Cent pot=  -109.49714533 kcal/mol
H      1.08020122      2.46362365     -3.53242414       0.19600314
H      0.71681044      2.97469619     -3.13877086       0.15423085
H     -1.79701166     -5.43831984      6.67119500       0.26013993
3
600000  xi=   0.17135492  Mean pot=  -106.69529080  Cent pot=  -109.36916178 kcal/mol
H     -1.62064546      3.19641956     -3.03834286       0.13412734
H     -1.15519993      3.22495587     -2.43874444       0.17145371
H      2.77584539     -6.42137543      5.47708731       0.20512026
3
700000  xi=   0.18026561  Mean pot=  -102.89560581  Cent pot=  -106.75732964 kcal/mol
H      3.65877735     -2.04098402     -0.95293289       0.17741229
H      3.98850893     -2.13542316     -0.19619503       0.17484085
H     -7.64728628      4.17640718      1.14912793       0.23384917
3
800000  xi=   0.18442435  Mean pot=  -106.63280781  Cent pot=  -109.45834675 kcal/mol
H      1.17243230      2.03278619      3.36015574       0.15236856
H      1.30157355      2.72413507      3.56300459       0.16910665
H     -2.47400586     -4.75692126     -6.92316033       0.19373574
3
900000  xi=   0.17931288  Mean pot=  -105.87508107  Cent pot=  -109.26383090 kcal/mol
H     -4.52832154     -0.51289762      1.18056059       0.14146921
H     -3.91874199     -0.80443352      0.93642048       0.17973769
H      8.44706353      1.31733113     -2.11698107       0.16510604
3
1000000  xi=   0.17870404  Mean pot=  -106.61604648  Cent pot=  -108.73397436 kcal/mol
H     -0.59271711     -4.66735460     -0.13226194       0.17776754
H     -0.68709136     -4.03307136     -0.41440986       0.19299203
H      1.27980847      8.70042596      0.54667179       0.21466676
3
1100000  xi=   0.18474793  Mean pot=  -107.01954025  Cent pot=  -108.55646950 kcal/mol
H      4.03530390     -0.45670810      0.90285790       0.32144465
H      4.53340566      0.00942931      0.76344973       0.12575685
H     -8.56870956      0.44727879     -1.66630762       0.22445908
3
1200000  xi=   0.18216395  Mean pot=  -104.11401122  Cent pot=  -109.10743848 kcal/mol
H      2.09824382     -4.09479963      0.30142588       0.20516183
H      2.36048610     -3.43535692      0.24493150       0.25211817
H     -4.45872992      7.53015655     -0.54635737       0.20216446
3
1300000  xi=   0.18040977  Mean pot=  -107.55580796  Cent pot=  -108.89465393 kcal/mol
H      3.98605600     -0.69228829     -0.25836148       0.20652536
H      4.65682994     -0.90177468     -0.20198618       0.12380796
H     -8.64288594      1.59406298      0.46034766       0.22372946
3
1400000  xi=   0.17426050  Mean pot=  -106.60458547  Cent pot=  -109.49745504 kcal/mol
H      3.98219150     -0.42747901      0.75459921       0.19652665
H      4.68024242     -0.67879354      0.78368992       0.20274122
H     -8.66243392      1.10627254     -1.53828912       0.19812679
3
1500000  xi=   0.17818803  Mean pot=  -104.41701475  Cent pot=  -109.48317133 kcal/mol
H     -1.48305958     -4.19242742      0.76656989       0.17793902
H     -1.81721780     -3.71376129      1.23360414       0.20636642
H      3.30027738      7.90618871     -2.00017403       0.21796954
3
1600000  xi=   0.17633195  Mean pot=  -106.28367027  Cent pot=  -109.27461109 kcal/mol
H     -2.51921190      1.03246432      3.02923312       0.13692033
H     -2.76167273      1.45047768      3.62283577       0.19571803
H      5.28088463     -2.48294200     -6.65206889       0.20634556
3
1700000  xi=   0.17341806  Mean pot=  -105.76094428  Cent pot=  -109.35231954 kcal/mol
H      4.04598586     -1.00481096      0.29938414       0.16805173
H      4.52356071     -1.26836920     -0.23089918       0.15067114
H     -8.56954657      2.27318016     -0.06848496       0.21930018
3
1800000  xi=   0.18272613  Mean pot=  -106.50811493  Cent pot=  -109.42317805 kcal/mol
H     -2.29861380     -3.78177399     -1.31372532       0.19757037
H     -1.58677627     -3.57414576     -1.45713762       0.15264533
H      3.88539007      7.35591975      2.77086294       0.18821677
3
1900000  xi=   0.17635796  Mean pot=  -106.82297757  Cent pot=  -109.49759152 kcal/mol
H     -1.12008125     -4.10923093      0.93577366       0.19694289
H     -0.79188250     -4.39680297      0.33689154       0.16801450
H      1.91196375      8.50603390     -1.27266520       0.13176126
3
2000000  xi=   0.16867349  Mean pot=  -106.23665435  Cent pot=  -107.20847258 kcal/mol
H      0.94740094     -3.81019357     -1.68267134       0.22265601
H      1.18591874     -3.84579960     -2.31077051       0.20306372
H     -2.13331969      7.65599317      3.99344184       0.18980678
