3
100000  xi=   0.33665616  Mean pot=  -104.22855263  Cent pot=  -109.49640430 kcal/mol
H      0.65508545      3.30534762     -1.28234569       0.21514535
H      1.36322214      3.16784455     -1.10246863       0.20143261
H     -2.01830760     -6.47319217      2.38481432       0.19078855
3
200000  xi=   0.33803937  Mean pot=  -108.21111304  Cent pot=  -109.12123987 kcal/mol
H      1.29980074     -0.35031816     -3.26262158       0.15341847
H      1.06016980      0.26876942     -3.52120412       0.18540072
H     -2.35997053      0.08154873      6.78382570       0.19387862
3
300000  xi=   0.34812646  Mean pot=  -106.83214923  Cent pot=  -109.44244882 kcal/mol
H     -1.92250322      3.13277440     -0.99715795       0.22884022
H     -1.99375490      2.65020496     -0.42308887       0.16381611
H      3.91625812     -5.78297936      1.42024681       0.22172425
3
400000  xi=   0.34178525  Mean pot=  -107.73072399  Cent pot=  -109.09609460 kcal/mol
H      1.51359147     -3.33615185     -0.12034348       0.20309744
H      1.83927844     -2.96691781      0.39330050       0.25326515
H     -3.35286991      6.30306967     -0.27295702       0.25111762
3
500000  xi=   0.34050389  Mean pot=  -107.85038958  Cent pot=  -108.67003185 kcal/mol
H      1.45346930      1.53557761     -2.96139181       0.14025997
H      1.92368353      1.67026487     -2.46205348       0.23338606
H     -3.37715284     -3.20584248      5.42344529       0.21585798
3
600000  xi=   0.34543131  Mean pot=  -106.06578916  Cent pot=  -109.43821573 kcal/mol
H     -3.21895746      0.76473949     -0.37553366       0.18514145
H     -3.59675052      1.34619345     -0.14798683       0.22070620
H      6.81570798     -2.11093294      0.52352049       0.20843052
3
700000  xi=   0.33123189  Mean pot=  -106.80245449  Cent pot=  -109.26738805 kcal/mol
H      0.51083720      2.40171228      3.15522872       0.18747429
H      0.40785527      2.15617012      2.48774462       0.20195407
H     -0.91869247     -4.55788240     -5.64297334       0.16219767
3
800000  xi=   0.34741047  Mean pot=  -105.62065692  Cent pot=  -109.47235464 kcal/mol
H      1.30369893      0.38852915     -3.12462840       0.21288827
H      1.23177553     -0.24116430     -3.52475945       0.14219019
H     -2.53547446     -0.14736485      6.64938785       0.23114420
3
900000  xi=   0.33673547  Mean pot=  -108.12781608  Cent pot=  -109.49030018 kcal/mol
H     -0.83265961      2.99539887     -1.40822171       0.16906235
H     -0.70857735      3.62920813     -1.05234863       0.13698843
H      1.54123696     -6.62460700      2.46057034       0.20477368
3
1000000  xi=   0.33594932  Mean pot=  -107.62031993  Cent pot=  -109.42690117 kcal/mol
H     -2.58569201      2.13524001      1.83114417       0.24149583
H     -2.03362075      2.38014434      1.42336147       0.18418874
H      4.61931276     -4.51538435     -3.25450564       0.15721684
3
1100000  xi=   0.33823919  Mean pot=  -106.63290043  Cent pot=  -109.12281028 kcal/mol
H     -0.92428289      1.62441638      2.89929862       0.15898701
H     -1.60896734      1.97378481      2.82024090       0.19328998
H      2.53325023     -3.59820119     -5.71953952       0.17801397
3
1200000  xi=   0.34471205  Mean pot=  -107.03663911  Cent pot=  -109.36033317 kcal/mol
H     -0.19440186     -1.19904694      3.32222411       0.19915277
H      0.51472452     -1.46790650      3.26960544       0.19645301
H     -0.32032266      2.66695343     -6.59182956       0.16485199
3
1300000  xi=   0.33627744  Mean pot=  -104.79784060  Cent pot=  -109.38303372 kcal/mol
H      1.45230909     -2.32738935     -2.93511697       0.24312581
H      1.15065357     -1.93803859     -2.35819052       0.18105241
H     -2.60296267      4.26542795      5.29330749       0.21683160
3
1400000  xi=   0.33912747  Mean pot=  -107.14354497  Cent pot=  -109.42640825 kcal/mol
H      3.28282610     -0.03879981     -2.13624122       0.16818043
H      2.96081869      0.22520631     -1.50652109       0.21986809
H     -6.24364479     -0.18640650      3.64276231       0.19819247
3
1500000  xi=   0.33227268  Mean pot=  -105.29861976  Cent pot=  -109.08729881 kcal/mol
H      1.04789693     -2.73722885      2.50497945       0.17422275
H      0.95944306     -2.03754677      2.59666134       0.16094740
H     -2.00733998      4.77477562     -5.10164079       0.19433391
3
1600000  xi=   0.34437600  Mean pot=  -104.85512011  Cent pot=  -107.68038017 kcal/mol
H     -1.65666016      1.16706273      2.90773473       0.12525083
H     -2.24442871      1.09806730      2.57320838       0.13118224
H      3.90108887     -2.26513004     -5.48094310       0.21665540
3
1700000  xi=   0.33669570  Mean pot=  -107.03197963  Cent pot=  -108.83445868 kcal/mol
H      0.83342304      2.87467830     -1.48466359       0.20882644
H      1.34156086      3.36086742     -1.48700816       0.17079695
H     -2.17498390     -6.23554573      2.97167175       0.21551266
3
1800000  xi=   0.33732509  Mean pot=  -107.47451105  Cent pot=  -109.47872007 kcal/mol
H      1.42831303     -0.57797987     -2.92020821       0.13463370
H      1.99318399     -0.49705227     -3.38328595       0.19890355
H     -3.42149702      1.07503214      6.30349416       0.21740470
3
1900000  xi=   0.33263792  Mean pot=  -107.22776650  Cent pot=  -109.48664725 kcal/mol
H      2.87274437     -0.96232355      1.57593972       0.17687631
H      2.95883132     -1.60506012      1.94640879       0.18789182
H     -5.83157569      2.56738367     -3.52234850       0.19483272
3
2000000  xi=   0.33807802  Mean pot=  -105.59152618  Cent pot=  -109.15694092 kcal/mol
H     -2.17534258      2.74618860     -0.35381948       0.17409633
H     -2.53077366      2.68234423      0.26190169       0.17233562
H      4.70611624     -5.42853282      0.09191780       0.21870831
