3
100000  xi=   0.60038882  Mean pot=  -107.09421249  Cent pot=  -109.48712209 kcal/mol
H      0.10105975      1.30481993     -1.68048970       0.19675224
H     -0.56027888      1.54301835     -1.90031414       0.19493998
H      0.45921914     -2.84783828      3.58080383       0.19079399
3
200000  xi=   0.59115367  Mean pot=  -106.12943614  Cent pot=  -109.49844336 kcal/mol
H      1.08222889      1.70858609     -0.03208406       0.23748100
H      1.39817157      2.35322209      0.15374374       0.17068380
H     -2.48040046     -4.06180818     -0.12165968       0.20862401
3
300000  xi=   0.60148721  Mean pot=  -105.45310756  Cent pot=  -106.83180245 kcal/mol
H      1.46491261     -1.71054298     -0.25779607       0.21763761
H      1.28346729     -1.82861110      0.37392792       0.19799684
H     -2.74837990      3.53915408     -0.11613185       0.18512490
3
400000  xi=   0.60235000  Mean pot=  -107.55667535  Cent pot=  -109.45699745 kcal/mol
H      2.03518539     -0.08480093     -0.74673694       0.15352181
H      2.39095599     -0.41091779     -0.19668324       0.16461983
H     -4.42614138      0.49571871      0.94342019       0.25552627
3
500000  xi=   0.60809329  Mean pot=  -107.20396894  Cent pot=  -108.99625559 kcal/mol
H     -0.56822536      0.68225893      2.14555016       0.20807251
H      0.05007394      0.33763451      2.16337300       0.20147946
H      0.51815142     -1.01989343     -4.30892315       0.13125401
3
600000  xi=   0.60747476  Mean pot=  -106.76261868  Cent pot=  -109.48373150 kcal/mol
H      0.29665205     -1.46244702     -1.37983090       0.15584875
H     -0.10767049     -2.06583629     -1.49710120       0.16970743
H     -0.18898156      3.52828331      2.87693210       0.18081449
3
700000  xi=   0.59796147  Mean pot=  -104.79600988  Cent pot=  -109.17231287 kcal/mol
H      0.16979913      1.86661458     -0.76198228       0.18408727
H     -0.17656120      2.39727200     -1.20038418       0.18139389
H      0.00676208     -4.26388658      1.96236645       0.16674206
3
800000  xi=   0.59921982  Mean pot=  -106.86424001  Cent pot=  -109.42094139 kcal/mol
H      2.22779654      1.22999021     -0.45687477       0.20471201
H      1.99387849      0.62310070     -0.07252394       0.14153941
H     -4.22167503     -1.85309090      0.52939871       0.24538234
3
900000  xi=   0.60314270  Mean pot=  -106.70690161  Cent pot=  -109.48010121 kcal/mol
H     -0.67711470      2.17846957     -0.02158236       0.16109599
H     -0.10695825      2.22641411      0.43987846       0.17367469
H      0.78407295     -4.40488368     -0.41829611       0.20078665
3
1000000  xi=   0.60232636  Mean pot=  -106.97992131  Cent pot=  -109.21493202 kcal/mol
H      1.49148120     -0.41891710     -1.35665167       0.18225416
H      1.81302730     -1.04629390     -1.48291426       0.15073209
H     -3.30450850      1.46521100      2.83956592       0.16990583
3
1100000  xi=   0.60165419  Mean pot=  -105.58500763  Cent pot=  -109.43598645 kcal/mol
H     -0.15624628     -1.41636599     -2.14105645       0.21275277
H      0.12397715     -1.48949988     -1.44484473       0.14899194
H      0.03226913      2.90586586      3.58590118       0.19367217
3
1200000  xi=   0.60034562  Mean pot=  -104.31581308  Cent pot=  -109.32070899 kcal/mol
H     -0.33946638      1.47102094      1.52241203       0.20968016
H      0.13693822      2.00854091      1.45526974       0.24015615
H      0.20252816     -3.47956185     -2.97768177       0.15465140
3
1300000  xi=   0.60011903  Mean pot=  -103.96860030  Cent pot=  -108.65714840 kcal/mol
H     -0.00837759      2.27700555     -0.64873505       0.13591336
H      0.48601759      1.89813959     -1.13303253       0.23480352
H     -0.47764000     -4.17514514      1.78176758       0.21074733
3
1400000  xi=   0.60204673  Mean pot=  -107.11007675  Cent pot=  -109.15209822 kcal/mol
H     -0.34921960      0.31327081      2.02712668       0.15269271
H     -0.57437801     -0.20198694      2.46648597       0.21897097
H      0.92359761     -0.11128387     -4.49361265       0.25543469
3
1500000  xi=   0.60296314  Mean pot=  -107.23643370  Cent pot=  -109.47293258 kcal/mol
H     -0.07533235      1.18458705      1.87272450       0.14995778
H      0.20630319      1.79387481      1.53926550       0.15315191
H     -0.13097084     -2.97846186     -3.41199000       0.16961936
3
1600000  xi=   0.59769899  Mean pot=  -104.68997869  Cent pot=  -109.37777146 kcal/mol
H      1.64989342      1.46406066      0.49370155       0.14409636
H      1.37189354      1.94586704     -0.02267602       0.15667201
H     -3.02178696     -3.40992770     -0.47102553       0.24835073
3
1700000  xi=   0.60351811  Mean pot=  -107.92337931  Cent pot=  -108.17109775 kcal/mol
H     -1.61102031      1.68640463      1.13357214       0.19856157
H     -1.19475211      1.49415181      0.62025795       0.20159563
H      2.80577242     -3.18055645     -1.75383010       0.17804298
3
1800000  xi=   0.59580774  Mean pot=  -106.34971182  Cent pot=  -109.48343367 kcal/mol
H     -0.26802700     -2.16822980     -0.93043936       0.21992206
H     -0.64859703     -1.69767798     -1.36939437       0.19322029
H      0.91662403      3.86590778      2.29983373       0.17023439
3
1900000  xi=   0.60412365  Mean pot=  -105.16817434  Cent pot=  -107.72147757 kcal/mol
H      0.76756297      0.62271612      1.95941312       0.15322520
H      1.38017271      0.09113281      2.00026605       0.22881703
H     -2.14773568     -0.71384893     -3.95967917       0.19357107
3
2000000  xi=   0.61177165  Mean pot=  -107.85160964  Cent pot=  -109.26733451 kcal/mol
H      1.85496297      0.30797093     -0.79317813       0.16838337
H      1.96259048      0.82017149     -1.28557954       0.14575120
H     -3.81755345     -1.12814242      2.07875767       0.16266401
