96
100000  xi=   0.63487019  Mean pot=  -104.84048438  Cent pot=  -109.25738132 kcal/mol
H      0.11555342      1.27662920     -1.55338873      4.62124227e+00    3.20278512e+00   -1.06675080e+01      -42.37616350    -16.15065254    -58.93557865  
H      0.22095176      1.21998125     -1.53000257     -1.14235862e+01    1.73621636e+00    1.68654442e+00       40.49571464      8.67468738     34.42828356  
H      0.35961655      1.24363687     -1.47647771     -1.17624405e+01    2.81849681e+00   -5.47718107e+00       74.28384824     15.22577992     57.72206313  
H      0.26274656      1.20535051     -1.41195188     -7.36826843e+00    6.49570507e+00   -8.73913146e+00       65.49463499      7.11204596     66.76166059  
H      0.28366667      1.17088136     -1.42290341     -1.85082772e+00    7.71314137e+00    1.65629732e+01       56.49077008      2.96186236     59.02217548  
H      0.21871060      1.31541108     -1.47730196     -6.49659341e+00    6.38899025e+00    1.15799484e+01       45.53887204      3.27922391     45.70526348  
H      0.21270137      1.29621122     -1.52620759      1.05257079e+01   -2.43456878e+00    5.09563782e+00       51.57227325    -18.17702997     60.22060144  
H      0.19045504      1.26770859     -1.55402138      3.20907185e-01   -3.17009712e+00   -6.07154595e+00       35.91357020    -11.03873844     34.90828792  
H      0.16628744      1.19655582     -1.54231378     -2.12585855e+00    4.80356705e+00   -3.75453378e-02       23.35398192     -8.24038503     22.81946980  
H      0.02146551      1.23906237     -1.52616434     -2.78587998e+00   -1.67975619e+00   -3.16413691e-01       14.52329734     -5.47613429     12.83555601  
H     -0.06783774      1.16766838     -1.66846826     -7.46862589e+00   -3.32772993e+00    1.09627950e+01     -240.91323718    167.89819864   -173.66291043  
H     -0.08026109      1.22816627     -1.62610743     -2.11669426e+00    7.21906617e+00    7.80445054e+00      -86.77114925     47.26499967    -67.03522371  
H     -0.21862264      1.18302561     -1.55119929     -1.31993550e+00   -6.38978311e+00   -1.19526039e+01     -161.85522975    120.12301350   -180.18413535  
H     -0.17193191      1.26640974     -1.54983883     -7.30257920e-01   -2.31149937e+00   -1.96532872e+01       -2.38695472      0.20795081     -2.31773786  
H     -0.12495805      1.30089594     -1.49441421     -1.64423505e+01    1.46306270e+01   -5.41135804e+00       49.91676759      2.54319502     39.91899759  
H     -0.10980748      1.20705978     -1.48254953     -2.81967381e+00    1.01789788e+00    1.21601798e+00      -17.66434766      2.97767777    -15.11535117  
H     -0.04936778      1.27802424     -1.49401705     -3.76414527e+00   -1.26288768e+01   -1.32503126e+01       15.24240862     -2.90105468     13.17137453  
H     -0.10079015      1.18698855     -1.42716261     -5.83116222e+00    1.44183937e+00    7.71450322e+00       36.42417356    -15.62223988     36.98125002  
H     -0.10355375      1.18413395     -1.35497122      1.22956576e+00   -1.63988906e+01   -4.42703617e+00       13.98756900     -2.70085956     18.94448521  
H     -0.14260445      1.16601047     -1.28620626     -1.49587759e+01   -2.18638646e+00   -1.67764560e+00       36.25694919     -4.78575094     61.91370099  
H     -0.15063313      1.04848599     -1.29751872     -4.15184586e+00   -6.82562911e+00    2.34205981e+00       35.62286829    -22.30682347     56.40109727  
H     -0.12976151      1.09992946     -1.32589191     -8.82223932e-01    7.72086404e+00    1.06129207e+01       12.63517182     -3.00247114     19.53877137  
H     -0.05834208      1.16286587     -1.29415758      6.93695305e+00   -7.49771128e-01   -1.20240466e+01       19.40537044     -2.40502294     37.82565210  
H      0.03936908      1.15098862     -1.21267262      6.66905974e+00    1.24669312e+01    9.81137694e-01       46.12604236    -14.53972607     78.22769974  
H      0.14118453      1.15703309     -1.28295961     -5.37179770e+00    3.96741913e+00   -5.21625503e+00       41.31272473     -8.74212570     51.95439557  
H      0.14597941      1.21945505     -1.43155984      6.21717841e+00   -1.41253148e+01    1.12349773e+01       16.89354610     -0.36447125     23.65306823  
H      0.09049655      1.32106710     -1.47803138     -1.12061555e+01   -5.29933525e-01   -9.22703186e+00      -35.01068378      3.76936578    -43.92019151  
H      0.09480956      1.35328089     -1.49132045     -1.24127954e+00   -2.07363314e+01   -1.68491385e+00      -76.24719379    -29.46283164    -87.83727086  
H      0.09227663      1.25424169     -1.47276400      9.95155141e-01    6.03867144e+00    1.42369085e+01       -5.12842711     -0.53514567     -6.67913673  
H      0.16234375      1.13917094     -1.41628713      4.95949111e+00    6.01424242e+00   -9.25393102e+00       22.97524779     -1.44594383     29.05530234  
H      0.06574844      1.13388373     -1.42972442      6.93583835e+00   -2.77852393e+00   -8.27196907e+00      -14.68768889      1.78827528    -18.31063216  
H      0.05653332      1.13058802     -1.47888216      8.71871069e+00   -3.57600177e+00   -3.07553330e+00        7.49711001     -0.52541089     11.84496871  
H     -0.26674203      1.13092036     -2.08506716      1.52014692e+00   -3.40845216e+00    1.16188892e-02       42.37614989     16.15106255     58.93506328  
H     -0.40036162      1.08689677     -2.05823618     -8.86734238e+00   -7.33279673e+00    3.70316637e+00      -40.49574682     -8.67419017    -34.42895451  
H     -0.39220692      1.08954344     -2.06068772     -2.52380354e+00   -6.42363242e+00   -2.33949540e+00      -74.28389236    -15.22511837    -57.72294946  
H     -0.40464509      1.13288875     -2.09226724      9.45318665e+00   -3.28130880e+00   -5.18967214e+00      -65.49463709     -7.11114519    -66.76279142  
H     -0.33974429      1.13820761     -2.07426551     -7.86826852e-02   -1.01898218e+00    5.89914318e-01      -56.49076293     -2.96098216    -59.02328078  
H     -0.38112995      1.27223090     -2.07935086      5.16496437e+00    4.04284560e+00    2.00427397e+00      -45.53889080     -3.27841354    -45.70625081  
H     -0.35835803      1.49750421     -2.19305329     -3.71244961e+00   -4.32054004e+00   -2.05197669e+00      -51.57224444     18.17797724    -60.22175632  
H     -0.38442689      1.44443108     -2.11283733      3.90639347e+00   -7.89608046e+00   -2.18932094e+00      -35.91354183     11.03942880    -34.90911247  
H     -0.38074219      1.38961213     -2.07687093     -1.12360104e+01   -7.25390217e+00   -1.00283268e+01      -23.35394522      8.24123813    -22.82050522  
H     -0.53233246      1.44794274     -2.01568471      2.52870019e+00   -3.37635779e-01   -7.03953895e+00      -14.52327770      5.47703800    -12.83662571  
H     -0.45053074      1.43437299     -1.94432919      8.91044708e+00    1.94082858e+00   -5.99022888e+00      240.91326667   -167.89736859    173.66182696  
H     -0.54525075      1.48143949     -1.98532254     -9.54683160e-01   -3.88039266e-01    7.94773144e+00       86.77117120    -47.26414293     67.03413803  
H     -0.55791781      1.43483207     -1.92890960      6.25074173e+00    8.99456369e-01   -1.12728691e+01      161.85523593   -120.12201408    180.18287646  
H     -0.70034070      1.31208752     -2.06251398     -1.07129094e+01   -4.16746040e+00   -2.33823999e-01        2.38691803     -0.20699196      2.31660254  
H     -0.78777253      1.26714108     -2.02449089     -2.90006776e+00    1.35226196e+01    7.09307785e+00      -49.91686205     -2.54228823    -39.92009760  
H     -0.64918616      1.29793727     -1.94404016      8.10284964e+00    2.20979722e-01    1.93427494e+01       17.66431563     -2.97684731     15.11433184  
H     -0.62478688      1.38759355     -1.99131668     -3.16290972e+00   -4.94964478e+00    1.05727022e+01      -15.24241448      2.90183624    -13.17236656  
H     -0.65649787      1.42535739     -1.99140737     -2.55917725e+00    3.89017626e-02   -3.73174240e+00      -36.42417390     15.62314114    -36.98251070  
H     -0.55983180      1.27230414     -1.97302914     -7.17982949e+00    9.29601437e-01    5.38606509e+00      -13.98758715      2.70189542    -18.94579517  
H     -0.58152158      1.22397256     -2.03574825      7.69044760e-02   -3.52734859e+00    1.89029915e+00      -36.25702604      4.78702212    -61.91527546  
H     -0.58923532      1.32317036     -1.99199451      2.84658504e+00    9.44900568e-01   -8.39766905e+00      -35.62294616     22.30830234    -56.40306148  
H     -0.54596921      1.19891773     -1.96961420      6.10185000e-01   -2.10884449e+00   -1.21943540e+00      -12.63520065      3.00379996    -19.54047078  
H     -0.42482961      1.20833401     -2.00858210      1.87077853e+00    6.63128772e+00   -3.88577682e+00      -19.40541184      2.40635984    -37.82724996  
H     -0.43505943      1.30056391     -2.01731721     -6.85010868e-01    7.79662532e+00   -5.14577224e-01      -46.12603678     14.54142217    -78.22988033  
H     -0.38759302      1.26895507     -1.94798114      5.75245271e+00    4.00492551e+00   -1.66077986e-01      -41.31266876      8.74350050    -51.95615509  
H     -0.30814087      1.22929543     -2.06744005      7.68915596e+00    9.22514157e+00   -1.07580070e+01      -16.89349660      0.36539331    -23.65418759  
H     -0.33573945      1.36693680     -2.01271019      1.57323952e+01   -1.04946858e+01   -3.54137074e+00       35.01072479     -3.76852995     43.91918248  
H     -0.31155324      1.19625281     -1.95944743      2.19296857e+00    2.87197204e+00    8.63572536e+00       76.24716145     29.46356248     87.83632269  
H     -0.35254949      1.20770130     -2.05194220     -1.81462362e+00    1.81065864e+01    2.85669541e+00        5.12842298      0.53598794      6.67809004  
H     -0.33006524      1.17019477     -2.03904817      4.95630063e-01    1.29906447e+01    4.40073192e+00      -22.97521786      1.44686827    -29.05644245  
H     -0.38072019      1.18819254     -1.98625638      8.32857504e+00    3.09988411e-01    5.34236103e+00       14.68771623     -1.78744993     18.30959412  
H     -0.34935428      1.15912201     -2.12026803     -7.99117371e-02    4.21567582e+00    1.02351876e+00       -7.49710825      0.52620733    -11.84594186  
H      0.49128915     -2.56124226      3.72938774      1.77974986e+01    6.61747503e+00   -6.36824385e-02        0.00001361     -0.00041000      0.00051537  
H      0.53696034     -2.57700450      3.67275663     -2.85150324e+00   -1.01993296e+01   -3.07236786e+00        0.00003217     -0.00049721      0.00067095  
H      0.52739702     -2.60442494      3.58686950      5.31999261e+00    2.03166471e+01    4.25014763e+00        0.00004412     -0.00066156      0.00088633  
H      0.34096771     -2.61493106      3.46414389      3.57974224e+00    9.77929203e+00    2.48254467e+00        0.00000211     -0.00090076      0.00113083  
H      0.41606458     -2.60371042      3.49813831      4.65746117e+00   -8.91504110e+00    9.71263733e+00       -0.00000715     -0.00088020      0.00110530  
H      0.49084064     -2.56212096      3.44570718      1.04447950e+00   -9.41504773e+00    5.96105052e+00        0.00001876     -0.00081037      0.00098733  
H      0.54863090     -2.46883818      3.39290455     -2.45264264e+00    6.62324813e+00    7.97867281e+00       -0.00002881     -0.00094727      0.00115488  
H      0.55379933     -2.66384883      3.45528153      2.59236138e+00   -1.34027204e+00    2.49196980e-01       -0.00002837     -0.00069036      0.00082455  
H      0.49887610     -2.65204563      3.39815438     -1.03072783e+01   -1.16109434e+00    2.66822630e+00       -0.00003671     -0.00085310      0.00103543  
H      0.44029710     -2.66112702      3.30895694     -1.44226655e+01   -7.96585274e+00    3.07730188e+00       -0.00001965     -0.00090371      0.00106971  
H      0.35919203     -2.67869674      3.24833010     -4.89322363e+00   -4.07159143e+00   -1.36085909e+00       -0.00002949     -0.00083005      0.00108347  
H      0.43409082     -2.58186762      3.25172396     -9.46701974e+00   -3.18666891e-01    9.30595885e+00       -0.00002195     -0.00085674      0.00108568  
H      0.38415067     -2.56716173      3.28378409      6.83098413e+00   -5.87439140e+00    1.01191979e+01       -0.00000617     -0.00099942      0.00125890  
H      0.33513958     -2.52021712      3.24902489      1.76805506e+00   -5.84528352e-01    8.47523069e+00        0.00003670     -0.00095885      0.00113532  
H      0.41899405     -2.55416244      3.30410804     -7.00463098e+00   -9.86592498e+00    1.06984018e+01        0.00009446     -0.00090679      0.00110001  
H      0.46889815     -2.57508906      3.44236660     -4.68709751e+00   -1.31369567e+00   -7.24003205e+00        0.00003204     -0.00083047      0.00101933  
H      0.39932187     -2.47190564      3.52798991      7.23870331e+00    2.97942814e+00   -6.71665041e-01        0.00000585     -0.00078156      0.00099204  
H      0.44188837     -2.28677460      3.65678412      3.15470269e+00    1.07989146e+00    1.78201315e+00        0.00000035     -0.00090126      0.00126068  
H      0.41449804     -2.33689962      3.60616213      3.58001589e-01    7.00381272e+00   -3.36779985e+00        0.00001815     -0.00103586      0.00130996  
H      0.40405849     -2.32250751      3.55729414      7.11531554e+00    1.54766747e+01    5.84562787e+00        0.00007685     -0.00127118      0.00157447  
H      0.43051218     -2.33070529      3.50405992      1.45563645e+01   -4.89156438e+00    2.88003603e-01        0.00007787     -0.00147887      0.00196421  
H      0.34454534     -2.30872342      3.53338501      6.89723303e+00    5.92227188e+00   -5.12653220e+00        0.00002883     -0.00132882      0.00169940  
H      0.37043101     -2.36906616      3.50467146      2.17013950e+00   -6.80142360e+00    4.97837833e+00        0.00004140     -0.00133690      0.00159786  
H      0.29353083     -2.24112410      3.49050727     -4.71450500e+00    1.03456783e+01    3.35890378e+00       -0.00000558     -0.00169609      0.00218059  
H      0.31077468     -2.33959562      3.49734126      7.81866680e+00    5.63901053e+00   -7.01351646e+00       -0.00005597     -0.00137480      0.00175952  
H      0.27918090     -2.47844810      3.51287956     -6.06459480e+00    6.88441449e+00    3.25950276e+00       -0.00004950     -0.00092206      0.00111936  
H      0.32755025     -2.42339702      3.51293856     -9.85630691e+00   -9.22946710e+00   -4.10068556e-01       -0.00004100     -0.00083583      0.00100902  
H      0.32871099     -2.39522433      3.48245585     -7.51788417e+00   -3.63433240e+00   -7.64510955e+00        0.00003234     -0.00073084      0.00094817  
H      0.41589625     -2.41749836      3.52754917      9.76882978e+00    8.50455154e+00   -9.60403401e-02        0.00000413     -0.00084227      0.00104669  
H      0.39836173     -2.53513864      3.53577265      2.44924602e+01    1.83368840e+00   -2.80887371e+00       -0.00002993     -0.00092444      0.00114011  
H      0.39080747     -2.51336753      3.64295378      4.24870318e+00   -2.23979546e+00   -1.68085869e+01       -0.00002733     -0.00082535      0.00103803  
H      0.47705467     -2.53878999      3.64508510      9.26683937e+00    9.76473625e+00    3.53694230e+00       -0.00000176     -0.00079644      0.00097316  
