3
100000  xi=   0.46703682  Mean pot=  -106.86709965  Cent pot=  -109.49782178 kcal/mol
H      0.46284426      2.32513457     -1.51811174       0.24714525
H     -0.05747769      2.38807758     -2.04259052       0.14127322
H     -0.40536656     -4.71321215      3.56070226       0.19079027
3
200000  xi=   0.47243508  Mean pot=  -107.00715731  Cent pot=  -108.19097086 kcal/mol
H      0.58704984     -3.04681806     -0.90495703       0.15302506
H      0.79495476     -2.39063189     -0.88345375       0.16452745
H     -1.38200460      5.43744994      1.78841078       0.12571025
3
300000  xi=   0.47483026  Mean pot=  -106.72659634  Cent pot=  -108.90685925 kcal/mol
H      1.02120019     -2.68490851      0.92345446       0.16770310
H      1.11767102     -2.59112945      0.23106661       0.20946323
H     -2.13887121      5.27603797     -1.15452107       0.18388121
3
400000  xi=   0.46887045  Mean pot=  -105.04226873  Cent pot=  -109.38783159 kcal/mol
H      1.83784216     -1.45782020      1.77812812       0.18937983
H      1.29346795     -1.39209220      2.25336784       0.20903110
H     -3.13131011      2.84991240     -4.03149596       0.20473236
3
500000  xi=   0.46718100  Mean pot=  -104.40144725  Cent pot=  -106.69025032 kcal/mol
H      2.64305476     -1.42447063     -0.84457093       0.14978895
H      2.66511017     -0.59347676     -0.87981156       0.13814495
H     -5.30816493      2.01794739      1.72438249       0.16121331
3
600000  xi=   0.46519225  Mean pot=  -107.35746337  Cent pot=  -109.44315359 kcal/mol
H     -0.06781991     -2.01137809      2.30318985       0.20035595
H      0.64986207     -1.85515769      2.13607436       0.19703833
H     -0.58204216      3.86653577     -4.43926421       0.25889406
3
700000  xi=   0.46469050  Mean pot=  -105.99748424  Cent pot=  -109.21584437 kcal/mol
H      1.74700957      1.59074864      1.83105516       0.16067624
H      1.82536496      0.93732404      2.11374826       0.20993484
H     -3.57237454     -2.52807268     -3.94480342       0.14598693
3
800000  xi=   0.47380015  Mean pot=  -106.23150336  Cent pot=  -109.49716918 kcal/mol
H     -0.28503727     -2.70965072     -1.10169981       0.15535434
H      0.43032948     -2.59383311     -1.25323235       0.14708148
H     -0.14529222      5.30348383      2.35493217       0.26507375
3
900000  xi=   0.47387722  Mean pot=  -107.45971936  Cent pot=  -109.35616329 kcal/mol
H      2.48046275      0.39157610     -2.07621388       0.16766654
H      2.19876136      0.11533511     -1.46976337       0.15309295
H     -4.67922410     -0.50691121      3.54597725       0.20994909
3
1000000  xi=   0.46652844  Mean pot=  -105.65898163  Cent pot=  -109.07200612 kcal/mol
H     -0.37545197      0.19792713      2.90138829       0.18596465
H     -1.01431898     -0.09757896      2.80374318       0.18419268
H      1.38977095     -0.10034818     -5.70513147       0.18295225
3
1100000  xi=   0.47135928  Mean pot=  -105.89521107  Cent pot=  -108.19621345 kcal/mol
H      0.77216287      2.43392045     -1.27010434       0.17026809
H      0.17913254      2.55979197     -1.59702479       0.15984778
H     -0.95129541     -4.99371242      2.86712913       0.24760432
3
1200000  xi=   0.47905593  Mean pot=  -106.71903497  Cent pot=  -109.46959383 kcal/mol
H      0.93326524     -2.63794145     -1.11256688       0.18331696
H      1.50257551     -2.22191437     -0.85713558       0.17147324
H     -2.43584075      4.85985581      1.96970246       0.20816121
3
1300000  xi=   0.46963203  Mean pot=  -105.33776050  Cent pot=  -109.47684986 kcal/mol
H     -0.95335706     -1.30273691     -2.65096692       0.18820980
H     -0.37923255     -1.61676093     -2.28700290       0.20726604
H      1.33258960      2.91949784      4.93796982       0.16037191
3
1400000  xi=   0.47214853  Mean pot=  -105.93054497  Cent pot=  -108.98231208 kcal/mol
H     -2.25095315     -1.19797979      0.68410799       0.18614969
H     -2.56481165     -1.81325253      1.04283827       0.19995721
H      4.81576481      3.01123232     -1.72694626       0.19569357
3
1500000  xi=   0.47478087  Mean pot=  -106.13279163  Cent pot=  -108.67729542 kcal/mol
H      2.81917688     -0.00977845     -0.25693571       0.18624759
H      2.90337523      0.63780339     -0.50669020       0.22586873
H     -5.72255210     -0.62802494      0.76362591       0.22571318
3
1600000  xi=   0.46290182  Mean pot=  -107.05211919  Cent pot=  -108.19764870 kcal/mol
H     -0.97505584      2.75846241      0.94750693       0.24930787
H     -0.59246703      2.79940909      0.37619894       0.19804925
H      1.56752287     -5.55787150     -1.32370587       0.16302952
3
1700000  xi=   0.47869387  Mean pot=  -106.08397224  Cent pot=  -108.95347724 kcal/mol
H     -1.82594179     -1.13924524      2.47576398       0.14456313
H     -1.42746077     -0.86064999      1.96284803       0.14599932
H      3.25340256      1.99989523     -4.43861201       0.14436912
3
1800000  xi=   0.46224602  Mean pot=  -106.41553993  Cent pot=  -109.26556628 kcal/mol
H      1.04920585      2.68776928     -0.27343130       0.17320740
H      0.44287221      3.04653130     -0.13218791       0.19122833
H     -1.49207806     -5.73430057      0.40561921       0.20529838
3
1900000  xi=   0.46548902  Mean pot=  -104.24649327  Cent pot=  -107.85185560 kcal/mol
H      1.40462401      2.42990288      0.94601707       0.21321251
H      2.03929448      2.14175068      0.53479734       0.22279109
H     -3.44391849     -4.57165356     -1.48081441       0.16436354
3
2000000  xi=   0.47034825  Mean pot=  -105.00923878  Cent pot=  -109.49760999 kcal/mol
H      1.57216151     -0.42024267     -2.17074716       0.16505415
H      2.10028418      0.01852844     -2.45302834       0.14700064
H     -3.67244569      0.40171424      4.62377550       0.16571094
