3
100000  xi=   0.50173334  Mean pot=  -105.78092640  Cent pot=  -108.46658217 kcal/mol
H      0.31225668      2.39168165     -1.64345088       0.24962169
H     -0.05052299      1.79578042     -2.02334127       0.13296277
H     -0.26173369     -4.18746207      3.66679215       0.19078740
3
200000  xi=   0.50546658  Mean pot=  -106.77391192  Cent pot=  -109.23048974 kcal/mol
H      1.58890705     -1.91802382     -0.55804867       0.12742366
H      2.15555200     -2.11987996     -0.16802933       0.21178114
H     -3.74445904      4.03790378      0.72607800       0.18541270
3
300000  xi=   0.48777181  Mean pot=  -107.51047825  Cent pot=  -109.39557583 kcal/mol
H      2.04921373     -1.72774340     -0.26044949       0.18025622
H      2.24742777     -1.84073093     -0.94985461       0.14889705
H     -4.29664150      3.56847433      1.21030410       0.19173345
3
400000  xi=   0.50165180  Mean pot=  -107.21806403  Cent pot=  -109.30369010 kcal/mol
H     -0.76309232     -1.98108841      1.99802785       0.19668646
H     -1.14158306     -1.98879945      1.38502955       0.23441670
H      1.90467538      3.96988785     -3.38305740       0.20485652
3
500000  xi=   0.50165380  Mean pot=  -106.30668169  Cent pot=  -109.33019044 kcal/mol
H     -2.12094903      1.99431540     -0.07970230       0.21192754
H     -2.27035566      1.37182477     -0.49336759       0.20798238
H      4.39130470     -3.36614017      0.57306989       0.23565019
3
600000  xi=   0.49644627  Mean pot=  -106.65699648  Cent pot=  -109.42798594 kcal/mol
H      2.17611499     -1.37904525     -0.19484782       0.20187619
H      2.86458028     -1.16713196     -0.08400331       0.19337293
H     -5.04069527      2.54617721      0.27885114       0.20111019
3
700000  xi=   0.50728265  Mean pot=  -106.99986511  Cent pot=  -109.49777097 kcal/mol
H      2.30799025      0.16912761      1.52070617       0.17917640
H      1.80344394      0.18237192      2.06477276       0.18942702
H     -4.11143419     -0.35149953     -3.58547893       0.24060732
3
800000  xi=   0.50401008  Mean pot=  -106.08170628  Cent pot=  -109.10017083 kcal/mol
H      2.97529063      0.04611650      1.00035278       0.17195020
H      2.42342094      0.28698929      0.51454521       0.16313376
H     -5.39871157     -0.33310579     -1.51489800       0.17550523
3
900000  xi=   0.49261279  Mean pot=  -107.49912533  Cent pot=  -109.23456031 kcal/mol
H     -1.67552393      1.97503963     -0.72976158       0.16595828
H     -1.70964343      2.49162501     -0.16310716       0.14941686
H      3.38516737     -4.46666463      0.89286874       0.23383139
3
1000000  xi=   0.49157097  Mean pot=  -105.65235460  Cent pot=  -109.33682342 kcal/mol
H      0.93374104      2.13444081     -1.94633859       0.18528748
H      0.81447844      2.26295213     -1.20501795       0.21106249
H     -1.74821948     -4.39739294      3.15135654       0.19270916
3
1100000  xi=   0.50082611  Mean pot=  -107.64861748  Cent pot=  -107.74084013 kcal/mol
H      2.05013464      0.65591726      1.59615839       0.15268826
H      2.01444180      0.18117584      2.08278298       0.15452334
H     -4.06457644     -0.83709309     -3.67894136       0.19996232
3
1200000  xi=   0.49801162  Mean pot=  -104.48389573  Cent pot=  -109.33382392 kcal/mol
H      1.55601463     -2.02669802     -0.50740886       0.19900239
H      1.94865748     -2.34470695      0.00853634       0.14174220
H     -3.50467212      4.37140496      0.49887252       0.24935234
3
1300000  xi=   0.49720293  Mean pot=  -107.25584369  Cent pot=  -108.65986280 kcal/mol
H     -1.60217289      1.17165567      1.64374449       0.15479917
H     -2.00726647      0.91097139      2.14987938       0.20819975
H      3.60943936     -2.08262706     -3.79362386       0.19874727
3
1400000  xi=   0.50242947  Mean pot=  -107.14122711  Cent pot=  -109.16037935 kcal/mol
H      2.77105121      0.53001806     -1.00522681       0.15689583
H      2.18786045      0.93813521     -1.06035240       0.21928911
H     -4.95891166     -1.46815327      2.06557921       0.18379686
3
1500000  xi=   0.50670083  Mean pot=  -107.54564028  Cent pot=  -109.17409845 kcal/mol
H     -1.29997750     -1.08677202     -1.91763953       0.11104147
H     -1.40718719     -0.76085222     -2.54436131       0.17127222
H      2.70716469      1.84762423      4.46200084       0.13841620
3
1600000  xi=   0.49408881  Mean pot=  -107.56727487  Cent pot=  -109.45307262 kcal/mol
H      1.70605134      2.27386109     -0.54482855       0.23896795
H      1.64585898      1.89225985     -1.16581494       0.16592051
H     -3.35191032     -4.16612094      1.71064349       0.15219310
3
1700000  xi=   0.50044270  Mean pot=  -107.29372493  Cent pot=  -109.07708712 kcal/mol
H     -0.53869799      1.67800620      2.00199602       0.18673930
H     -0.71944605      1.26664841      2.55279358       0.22051130
H      1.25814404     -2.94465461     -4.55478960       0.26135840
3
1800000  xi=   0.49221277  Mean pot=  -106.18454458  Cent pot=  -109.48453814 kcal/mol
H     -0.95305024      2.89617337      0.00326865       0.16862876
H     -0.69529998      2.50761134      0.58729579       0.20341585
H      1.64835023     -5.40378471     -0.59056444       0.24811760
3
1900000  xi=   0.50877515  Mean pot=  -106.08375709  Cent pot=  -109.16570293 kcal/mol
H     -2.44259202     -1.49916799     -0.85452002       0.19077294
H     -1.82902198     -1.69448339     -0.54565626       0.19467789
H      4.27161400      3.19365139      1.40017628       0.13764142
3
2000000  xi=   0.49836561  Mean pot=  -105.16738676  Cent pot=  -109.16206901 kcal/mol
H      2.79267850      0.02652147      1.46474230       0.14326649
H      2.14117243      0.40071801      1.29165153       0.18654059
H     -4.93385093     -0.42723948     -2.75639382       0.24519799
