96
100000  xi=   0.71913195  Mean pot=  -107.40646109  Cent pot=  -109.46491891 kcal/mol
H     -0.01096250      0.52236955     -1.38314285      1.44796284e+00   -5.42494878e+00   -2.43768958e+00       11.18592989     -3.21089034      9.49883997  
H     -0.04778979      0.43876642     -1.39909315     -1.21666656e+01    2.37190196e+00   -1.39523123e+00      -33.60199469     14.80105748    -25.75764123  
H      0.10143884      0.46415118     -1.37596129     -1.37128565e+01   -2.63640771e-01    7.89755527e+00       36.43002227    -11.09049622     21.35229667  
H      0.06799510      0.53661533     -1.31963071      4.54610239e+00    3.23498255e+00   -4.18921286e+00       56.67813827     -5.13679742     37.56163445  
H      0.08287380      0.54803060     -1.30328027     -8.23780933e+00    1.02817250e+01    6.39097073e+00       43.19950126     -0.84686041     32.74429120  
H      0.01155688      0.73056921     -1.36057927      5.05838532e+00    6.05211714e+00    9.90242626e+00       16.57372908      1.96822765     11.82267945  
H     -0.01246183      0.80706810     -1.36006296      5.19072411e+00   -1.03870334e+01    8.86529157e+00       36.10413632      1.33302122     39.34770106  
H      0.02547563      0.77696285     -1.34590484      9.19712482e+00   -6.96728103e+00   -8.96513772e+00       61.33086158      3.77756935     52.51199974  
H     -0.00817396      0.67362751     -1.32840894     -5.09010586e+00   -1.78961440e+00   -1.38027089e+01       49.19184543     -2.99292951     44.23625938  
H     -0.20731173      0.70187332     -1.36911884     -6.47315699e+00    2.89708694e+00   -6.02096001e+00      -49.85569592      7.77865531    -38.57097662  
H     -0.22389076      0.66844030     -1.45048032      1.88937596e-01   -9.88244104e+00    6.07282537e+00     -154.95871801     19.80311548    -97.90411584  
H     -0.27062438      0.66489858     -1.32947100      8.93512524e-01    2.74878816e+00    7.82942797e+00       21.50246390     -7.40673053     23.14429875  
H     -0.38155270      0.59518121     -1.29369388      1.76803002e+00   -1.22218102e+00   -1.29536777e+01      -17.46071396      8.81132356    -19.44773241  
H     -0.41647238      0.51753717     -1.37542629      2.35922487e+00   -9.52111307e-01   -8.76603284e+00        5.39400978     -3.88342566      5.31603226  
H     -0.38460432      0.44014809     -1.40415656     -9.50646330e+00    1.94743455e+01    3.88648778e+00       36.83021031    -30.92789886     20.25745260  
H     -0.34312532      0.42997055     -1.35652831     -1.81276316e+00   -1.25810124e+00    1.60317541e+01        4.33182811     -3.77746091      2.73083498  
H     -0.30556425      0.52340257     -1.29826218     -4.05848339e+00   -1.03279011e+01    6.36390733e+00       31.14049951    -26.07231425     30.98526159  
H     -0.32405612      0.53418882     -1.28396227     -5.42822887e+00    5.28618657e+00   -8.86402895e-01       24.72970418    -15.55952721     20.80016167  
H     -0.24559971      0.61571820     -1.25915410     -3.16027723e+00   -1.45496768e+01   -3.96842452e+00       -1.32205537      0.05805861     -0.91725746  
H     -0.31156324      0.62357642     -1.18518346     -8.01117265e+00   -4.50824981e+00    5.89151213e+00       19.12481518      2.03641280     19.91661708  
H     -0.29604404      0.59810470     -1.25801524     -9.88950210e+00   -2.23474134e+00   -1.17874649e+01      -33.72269420     -1.41848519    -22.06689267  
H     -0.26877881      0.56537413     -1.29878641      2.68015905e+00    7.86729238e+00    2.50764520e+00      -87.51258073     -4.83209520    -46.71862571  
H     -0.15364992      0.63067853     -1.30853488      6.26277456e+00   -4.01086613e+00   -6.61269455e+00      -49.34360439     -7.25393208    -23.74295339  
H     -0.13069541      0.67881603     -1.23991490      1.97491668e+00    8.91166097e-01    2.18938941e+00      -49.16462547     -9.11169791    -30.93005579  
H     -0.01103983      0.61128457     -1.24749277      1.99150723e+00    9.59112975e+00   -3.01447940e+00        3.30047863     -0.01323374      1.71201946  
H      0.01238814      0.57749755     -1.34930856     -1.52873745e+00    1.04521206e+01   -6.34168100e+00        7.09772592     -1.06298155      4.64958441  
H     -0.05827008      0.67715439     -1.41310478     -5.38219681e+00   -6.16293076e+00   -5.54058108e-01     -101.10320947     23.93626763    -48.93447486  
H     -0.00360182      0.53900217     -1.25122625     -2.25007767e+00   -2.27408354e+00    8.96816950e+00       57.73952014    -24.24490812     49.77931190  
H     -0.03571048      0.47710321     -1.41917504     -2.19138588e+00    7.20072422e+00    8.63414209e+00       10.38088798     -5.10350988      4.89256167  
H     -0.00349267      0.43673557     -1.37337072      5.35486033e+00    3.14189068e+00   -3.96551573e+00      -18.36825918      7.25378141     -9.77465267  
H     -0.07153263      0.48991628     -1.33060629      1.00196019e+01   -5.39309124e+00   -3.57236082e+00      -13.37018598      3.12598470     -7.99887015  
H     -0.10659024      0.42678669     -1.42491210      8.60275862e+00   -4.69862402e-01   -3.96578288e+00      -56.16780328     25.68194951    -38.97574746  
H     -0.57736478      0.68511224     -1.86450421      4.76344491e+00    4.60732409e+00   -7.07409788e+00      -11.18707622      3.21362548     -9.50566328  
H     -0.56871619      0.66817893     -1.79827867     -8.05748393e+00   -8.60475350e+00    7.91195416e+00       33.60068813    -14.79832479     25.75048315  
H     -0.57121769      0.66898947     -1.77036823     -4.96183678e-01   -3.96424493e+00   -1.45614473e+01      -36.43169894     11.09417192    -21.36129458  
H     -0.64699034      0.60146997     -1.79357845     -2.39927222e+00   -6.51223031e-01   -8.60503207e+00      -56.68019704      5.14188926    -37.57319392  
H     -0.57611046      0.56101666     -1.80290987      6.38287246e+00   -4.22524428e+00    1.19124889e+01      -43.20149116      0.85164074    -32.75516835  
H     -0.61108494      0.65679987     -1.80502934     -6.32314414e+00    3.75822242e+00    4.82109659e+00      -16.57568153     -1.96380319    -11.83202881  
H     -0.57027206      0.78654593     -1.96809961      1.69181939e+00    2.98749137e+00   -4.67912916e+00      -36.10628333     -1.32849032    -39.35718548  
H     -0.65656977      0.73499964     -1.92994984     -4.89739772e+00   -4.72759803e+00    1.85572262e+00      -61.33277890     -3.77329036    -52.52049213  
H     -0.64329782      0.71232770     -1.89964820     -8.20721276e+00   -1.30033501e+00    4.87364060e+00      -49.19402766      2.99772664    -44.24608514  
H     -0.74066794      0.78503445     -1.78165614      6.28967621e+00   -5.55234860e+00   -1.77898543e-01       49.85359784     -7.77405088     38.56195638  
H     -0.73153084      0.73329884     -1.77118242      1.31822386e+00    7.86208557e+00    3.74073644e-02      154.95678726    -19.79871054     97.89534244  
H     -0.79194004      0.84458023     -1.89078811     -3.89248823e+00    3.44273112e+00    9.07354991e+00      -21.50527381      7.41190707    -23.15486095  
H     -0.83210505      0.82243231     -1.79527865      3.23260177e+00   -4.90115164e+00   -9.12604211e+00       17.45784310     -8.80631461     19.43705605  
H     -0.89284496      0.86076228     -1.84572287     -1.37354585e+01   -6.16149553e+00   -9.97396610e+00       -5.39703419      3.88822905     -5.32720184  
H     -0.96527234      0.92778870     -1.72367683     -9.76517768e+00    8.04039384e+00   -1.05514529e+00      -36.83345673     30.93255021    -20.26854103  
H     -0.85297224      0.87477636     -1.67898750      7.16576928e+00    1.86796485e+00    5.66758016e+00       -4.33442442      3.78129074     -2.74039258  
H     -0.80572661      0.94219452     -1.79605750     -2.79835424e+00   -7.88262370e+00   -7.89333491e+00      -31.14282026     26.07605221    -30.99462801  
H     -0.87040860      0.87798931     -1.74368135     -2.89047717e+00   -4.43942963e+00    6.01238132e+00      -24.73192333     15.56264694    -20.80908662  
H     -0.85489197      0.64062474     -1.67785615     -2.72289958e+00   -1.54729436e+00    6.07747822e+00        1.31974325     -0.05421654      0.90750434  
H     -0.84976869      0.56640543     -1.74590291     -6.79800545e+00   -1.84386595e+00   -4.53704643e+00      -19.12769781     -2.03198243    -19.92760698  
H     -0.88093470      0.57342245     -1.64058405      8.65639822e+00   -4.26669850e+00    6.88158015e+00       33.71988776      1.42276057     22.05613530  
H     -0.84409790      0.53358046     -1.60586058     -2.88407638e+00   -2.89388035e+00    8.03003518e+00       87.51010524      4.83604112     46.70815783  
H     -0.76668558      0.54050354     -1.60340372      2.61783053e+00    9.26479315e+00   -8.14678128e+00       49.34116541      7.25825777     23.73222374  
H     -0.70207360      0.57286358     -1.59925713      4.07354462e+00    1.87471470e+01   -5.79484611e-01       49.16203624      9.11663023     30.91749219  
H     -0.67253727      0.61488567     -1.59277337     -1.53698343e+00   -2.25866318e+00   -1.22204214e+00       -3.30291831      0.01845164     -1.72508539  
H     -0.61163135      0.67131751     -1.75892676      1.55006961e+01   -1.59660710e+01    7.96487215e+00       -7.09938133      1.06736080     -4.66013251  
H     -0.62410286      0.81109627     -1.68692349      9.97606089e+00   -5.50684982e+00   -1.10754749e+01      101.10169755    -23.93263360     48.92579800  
H     -0.65026730      0.81057564     -1.80883804      3.27304636e+00   -1.62100648e+01   -8.64305775e-01      -57.74205940     24.25004199    -49.79210682  
H     -0.66164814      0.78499773     -1.71473357      1.43481107e+00    1.63101387e+01    9.59319331e+00      -10.38283109      5.10722747     -4.90256280  
H     -0.60140112      0.67274601     -1.69123998      1.76658673e-01    1.52325025e+01    2.60488322e-01       18.36648354     -7.24991092      9.76474967  
H     -0.68051602      0.63214353     -1.69454502      5.31030910e+00    2.30649865e+00    1.77983337e+00       13.36856349     -3.12252094      7.99006846  
H     -0.62338229      0.66305670     -1.78344300      1.07351471e-01    4.66013094e-01    3.05534903e+00       56.16644890    -25.67923672     38.96840733  
H      0.92840054     -1.36127123      3.33862460      1.77298350e+01    7.23778158e+00   -1.21172713e+00        0.00114633     -0.00273514      0.00682331  
H      0.97408078     -1.37703061      3.28185608     -2.92038053e+00   -9.56661498e+00   -4.19647907e+00        0.00130657     -0.00273269      0.00715808  
H      0.96457236     -1.40435708      3.19604380      5.24392322e+00    2.09369626e+01    3.09648214e+00        0.00167667     -0.00367570      0.00899791  
H      0.77806196     -1.41486522      3.07315056      3.51804206e+00    1.04175339e+01    1.34655024e+00        0.00205877     -0.00509184      0.01155947  
H      0.85324085     -1.40355038      3.10712166      4.58140101e+00   -8.28757492e+00    8.56533394e+00        0.00198990     -0.00478033      0.01087716  
H      0.92792316     -1.36195672      3.05470933      9.79869679e-01   -8.78417418e+00    4.81775023e+00        0.00195245     -0.00442445      0.00934935  
H      0.98573446     -1.26867443      3.00176703     -2.52420016e+00    7.26229979e+00    6.83955431e+00        0.00214701     -0.00453090      0.00948442  
H      0.99090403     -1.46366669      3.06429633      2.52145317e+00   -7.11998637e-01   -9.03880376e-01        0.00191733     -0.00427899      0.00849239  
H      0.93589606     -1.45190349      3.00703470     -1.03720811e+01   -5.15386654e-01    1.53074290e+00        0.00218223     -0.00479713      0.00982577  
H      0.87742254     -1.46091723      2.91785095     -1.44974629e+01   -7.33768793e+00    1.92296345e+00        0.00209808     -0.00460444      0.00902024  
H      0.79622106     -1.47851090      2.85724061     -4.95648488e+00   -3.42809210e+00   -2.50242865e+00        0.00193075     -0.00440494      0.00877340  
H      0.87117073     -1.38165955      2.86050981     -9.54178037e+00    3.13841008e-01    8.15889761e+00        0.00280990     -0.00517655      0.01056220  
H      0.82124661     -1.36693605      2.89267445      6.76300227e+00   -5.23979059e+00    8.97113703e+00        0.00287086     -0.00500895      0.01067636  
H      0.77219250     -1.32006968      2.85782006      1.70041429e+00    5.44662531e-02    7.32822117e+00        0.00302441     -0.00480339      0.01116958  
H      0.85614787     -1.35395995      2.91301157     -7.07607618e+00   -9.23624233e+00    9.55091588e+00        0.00324642     -0.00465135      0.01108843  
H      0.90598100     -1.37495859      3.05133508     -4.75511003e+00   -6.74354504e-01   -8.38425499e+00        0.00259631     -0.00382983      0.00955760  
H      0.83648535     -1.27178820      3.13693016      7.16613105e+00    3.60308253e+00   -1.81590480e+00        0.00232076     -0.00373796      0.00936641  
H      0.87904075     -1.08664800      3.26589137      3.08516756e+00    1.71743219e+00    6.35894612e-01        0.00221915     -0.00311973      0.00892495  
H      0.85161730     -1.13683268      3.21516181      2.89780232e-01    7.63392933e+00   -4.51694356e+00        0.00231211     -0.00384207      0.00975312  
H      0.84126683     -1.12241821      3.16640936      7.04241047e+00    1.61074503e+01    4.70525148e+00        0.00288262     -0.00443037      0.01098990  
H      0.86760524     -1.13069442      3.11318385      1.44856942e+01   -4.26064083e+00   -8.64989536e-01        0.00280644     -0.00427538      0.01075737  
H      0.78171752     -1.10872217      3.14247955      6.82685104e+00    6.55150217e+00   -6.26672751e+00        0.00247548     -0.00394592      0.01046788  
H      0.80756849     -1.16911072      3.11390957      2.09953826e+00   -6.16845249e+00    3.82464796e+00        0.00243898     -0.00432569      0.01072966  
H      0.73062707     -1.04125614      3.09967064     -4.78043566e+00    1.09713498e+01    2.21718502e+00        0.00258923     -0.00493232      0.01256360  
H      0.74794037     -1.13970710      3.10665877      7.74505049e+00    6.27279519e+00   -8.15864836e+00        0.00243968     -0.00521790      0.01306593  
H      0.71624992     -1.27862513      3.12214692     -6.12912072e+00    7.50789654e+00    2.11052626e+00        0.00165541     -0.00437925      0.01054811  
H      0.76470439     -1.22352738      3.12218003     -9.92601030e+00   -8.59435110e+00   -1.54503525e+00        0.00151191     -0.00363404      0.00867686  
H      0.76580910     -1.19534955      3.09179553     -7.58680492e+00   -3.00754369e+00   -8.80189643e+00        0.00253926     -0.00513387      0.01279491  
H      0.85300337     -1.21763782      3.13672485      9.70409242e+00    9.13735162e+00   -1.22746426e+00        0.00194311     -0.00371759      0.01000113  
H      0.83552584     -1.33520414      3.14504925      2.44167695e+01    2.45983484e+00   -3.95714814e+00        0.00177564     -0.00387049      0.00990300  
H      0.82787663     -1.31345333      3.25214905      4.18387343e+00   -1.61291384e+00   -1.79478043e+01        0.00162249     -0.00346376      0.00880169  
H      0.91422730     -1.33880368      3.25424765      9.19371049e+00    1.03979324e+01    2.39901765e+00        0.00135438     -0.00271279      0.00734012  
