3
100000  xi=   0.71028831  Mean pot=  -106.18021984  Cent pot=  -109.41127733 kcal/mol
H     -0.12813457      0.67138094     -1.39317849       0.20199906
H     -0.75783688      0.62486130     -1.75341799       0.18332578
H      0.88597145     -1.29624224      3.14659648       0.19081072
3
200000  xi=   0.72366765  Mean pot=  -107.23233953  Cent pot=  -109.42010784 kcal/mol
H      1.15328903     -0.97867442     -1.18773487       0.20868308
H      0.86637224     -0.27965169     -1.21740857       0.12911830
H     -2.01966127      1.25832611      2.40514344       0.20844080
3
300000  xi=   0.71378886  Mean pot=  -107.16139821  Cent pot=  -109.47968539 kcal/mol
H      0.75469685     -0.20833974     -1.38061074       0.13488844
H      0.41016709     -0.75590122     -1.72749391       0.15777906
H     -1.16486394      0.96424096      3.10810465       0.22461647
3
400000  xi=   0.70301700  Mean pot=  -107.12785593  Cent pot=  -109.48990524 kcal/mol
H      1.10930413     -0.94303642      0.59744003       0.16026190
H      1.02578147     -1.67175139      0.65996485       0.19816181
H     -2.13508560      2.61478781     -1.25740488       0.23245218
3
500000  xi=   0.70113310  Mean pot=  -106.07252198  Cent pot=  -108.02564196 kcal/mol
H     -0.83554272     -0.08149698      1.31561352       0.14780608
H     -0.88947463      0.45983827      1.90959264       0.17118431
H      1.72501735     -0.37834128     -3.22520616       0.14963198
3
600000  xi=   0.71188093  Mean pot=  -105.21976338  Cent pot=  -109.37571839 kcal/mol
H      0.35820985      1.67626956      0.36196569       0.19720803
H      0.11871374      1.69663854     -0.35856216       0.26689777
H     -0.47692359     -3.37290810     -0.00340353       0.15714719
3
700000  xi=   0.70402406  Mean pot=  -105.98888647  Cent pot=  -108.84014557 kcal/mol
H      0.20407599      0.84144279     -1.56972202       0.14861518
H      0.00771698      1.34210170     -1.11651458       0.25321300
H     -0.21179297     -2.18354449      2.68623660       0.17497704
3
800000  xi=   0.71249150  Mean pot=  -106.93896399  Cent pot=  -109.50166487 kcal/mol
H      0.06181315     -0.90533386     -1.92554904       0.21553912
H      0.11245141     -0.40135279     -1.38035357       0.22132373
H     -0.17426456      1.30668666      3.30590261       0.27807616
3
900000  xi=   0.70464002  Mean pot=  -107.85120766  Cent pot=  -108.44063356 kcal/mol
H     -1.40574496     -0.55389306      1.46694362       0.14880557
H     -1.19283625     -0.25491312      0.87841286       0.22058078
H      2.59858121      0.80880618     -2.34535648       0.21086716
3
1000000  xi=   0.70810448  Mean pot=  -106.27897627  Cent pot=  -109.17976939 kcal/mol
H      1.11214514      0.25692601      1.16500462       0.22283487
H      0.80466838     -0.07101412      1.79067611       0.24210952
H     -1.91681352     -0.18591188     -2.95568073       0.14138971
3
1100000  xi=   0.70306933  Mean pot=  -107.08026885  Cent pot=  -109.46431142 kcal/mol
H      0.88620159      1.24172016      0.37062862       0.22960402
H      1.46759976      1.21257832      0.81461927       0.14341630
H     -2.35380135     -2.45429849     -1.18524790       0.23740543
3
1200000  xi=   0.71602289  Mean pot=  -106.31049966  Cent pot=  -108.51371232 kcal/mol
H     -0.07590210     -0.98354486      1.25088763       0.20546048
H     -0.66731478     -1.47948504      1.06780253       0.15254351
H      0.74321688      2.46302990     -2.31869016       0.19531411
3
1300000  xi=   0.69998995  Mean pot=  -106.07315864  Cent pot=  -109.43016198 kcal/mol
H     -0.00463787      1.52300988      0.12693728       0.12475726
H     -0.45237724      2.09719030      0.15312245       0.18975134
H      0.45701511     -3.62020018     -0.28005973       0.19129353
3
1400000  xi=   0.70022272  Mean pot=  -107.25468047  Cent pot=  -106.96958719 kcal/mol
H     -1.27232060      0.50121831     -0.60556650       0.16228779
H     -1.73948440      0.69645338     -1.04359943       0.21751184
H      3.01180500     -1.19767169      1.64916593       0.21520550
3
1500000  xi=   0.71459946  Mean pot=  -104.94698354  Cent pot=  -108.96886799 kcal/mol
H     -0.45143974     -0.70389488     -1.30229703       0.16669958
H     -1.21560595     -0.84620329     -1.35388270       0.22465036
H      1.66704569      1.55009817      2.65617973       0.21004617
3
1600000  xi=   0.70807216  Mean pot=  -106.80805193  Cent pot=  -109.48201270 kcal/mol
H      0.50174825      0.40818151      1.63323577       0.21964403
H      1.00899254      0.77289483      1.22031923       0.16542212
H     -1.51074079     -1.18107633     -2.85355499       0.19497160
3
1700000  xi=   0.71513209  Mean pot=  -106.42277158  Cent pot=  -109.50262039 kcal/mol
H      0.02584030      0.45923764      1.42042242       0.16896303
H     -0.51647596      0.43697843      1.92293595       0.16170674
H      0.49063566     -0.89621606     -3.34335837       0.24702162
3
1800000  xi=   0.70891073  Mean pot=  -106.74515740  Cent pot=  -109.49096872 kcal/mol
H     -1.07724238      0.99294226      0.91543295       0.17447734
H     -0.90655680      1.49957515      0.39351951       0.15854378
H      1.98379919     -2.49251741     -1.30895246       0.16524626
3
1900000  xi=   0.71534659  Mean pot=  -106.15202966  Cent pot=  -108.90671060 kcal/mol
H      0.62975791      1.27324741     -0.95503365       0.19128210
H      0.29443217      1.69926177     -0.39254238       0.13444322
H     -0.92419008     -2.97250919      1.34757603       0.17997647
3
2000000  xi=   0.71025179  Mean pot=  -106.20168060  Cent pot=  -109.42503504 kcal/mol
H      1.37656065     -0.71068972     -0.20042121       0.14410008
H      1.90169933     -0.32181129     -0.52151996       0.17298741
H     -3.27825997      1.03250101      0.72194117       0.22679833
