96
100000  xi=   0.18043163  Mean pot=  -106.27267862  Cent pot=  -109.49239900 kcal/mol
H     -1.95281581      2.12020567      3.05809792      3.37130246e+00   -8.02087526e+00   -1.91713111e+00       -5.03923542     26.85605039    -17.67837999  
H     -1.92122931      2.05006167      3.04917937     -1.44450521e+01    6.23412066e+00    3.20571665e+00       -3.62376145     11.23948917     -5.70001689  
H     -1.84921716      2.08441518      3.07069621     -7.71075302e+00    3.47350821e+00   -7.36766403e+00      -15.95259753     46.76206652    -24.79818751  
H     -1.83345219      2.06312435      3.12791983     -1.35088589e+00   -1.78067114e+00   -1.11420961e+01       19.66178424    -36.43800510     22.58765368  
H     -1.80400090      2.04688585      3.09424488      9.18110796e+00    7.69904330e+00    8.74000628e+00        9.08966886    -18.40111548      9.17799188  
H     -1.88274966      2.20223925      3.01035394     -2.37049048e+00    7.68736000e+00    2.19359038e+01      -21.41699932     49.20765567    -16.96538324  
H     -1.84343929      2.33309727      2.96910586      1.25179371e+01   -9.28394693e+00    4.20580473e+00      -21.43476053     36.11577909    -19.05135733  
H     -1.81797589      2.31659355      2.94719858      1.77112064e+00   -6.21629827e+00   -1.25588199e+00      -40.81400536     47.89076341    -18.43062728  
H     -1.80913839      2.28261447      2.98879720     -3.43443560e+00   -2.13889844e-01   -2.68072485e-01      -48.45958980     46.02477990    -23.80744988  
H     -1.92092214      2.33375800      2.99558787     -1.04889340e+01   -7.52078398e+00    2.56094648e+00      -24.12783131     19.72409968     -7.34985513  
H     -2.04250201      2.22891814      2.94079517     -8.33506202e+00   -4.00293856e+00    1.14966297e+01      -50.40366661     94.99871167    -20.96231078  
H     -2.07733501      2.25091083      2.90980980     -1.23051731e+00    3.53942084e+00    6.64886862e+00      -13.44412035     25.06080311     -2.42398717  
H     -2.24291962      2.22510755      2.95924651     -4.63356438e+00   -1.15449712e+01   -8.11352333e+00      -46.86079822    176.97957608     -8.45162077  
H     -2.29277366      2.06196679      2.93831091     -9.80962964e+00   -8.97253357e+00   -1.24694283e+01       13.28380225    -76.80468562     10.43048595  
H     -2.29794262      2.06593799      3.09812424     -1.70658196e+01    1.13845176e+01    6.90834277e+00       17.38223861    -81.99156776     33.13761255  
H     -2.26100083      2.03179772      3.13800724      4.77897188e+00    8.38551053e+00   -1.72240646e+00        9.53946230    -81.10321909     31.38883934  
H     -2.24949185      2.21283112      3.07925967     -4.42181154e-01   -1.04013804e+01   -1.10214006e+01       -1.49970671     25.22702218    -10.50319942  
H     -2.35255454      2.15498832      3.17271164      7.67956754e+00    2.29900973e+00    2.78585460e+00       -5.34599144    -45.74049692     25.03662087  
H     -2.26514235      2.03940383      3.19307671     -2.49063197e+00    1.40435794e+00   -5.69961576e+00       -0.24724631    -64.10610838     27.73777721  
H     -2.30828169      2.04393314      3.19960897     -3.70300911e+00   -7.77845071e+00   -1.96597991e+00       -1.43191490    -35.96218552     17.54740614  
H     -2.30987646      2.05519138      3.17822670     -1.92612981e-02   -6.25700654e+00    3.47560322e+00        0.19638758      8.29724044     -3.37126542  
H     -2.20803063      1.96895295      3.18434663      7.58065787e+00   -1.72703671e+00    2.10436178e+00        8.81443731    -55.45585161     20.94517636  
H     -2.05588153      2.02042313      3.14702945     -2.03283142e+00    6.32099301e+00   -9.10772429e+00       13.88249501    -44.04088642     13.33658436  
H     -2.05961268      2.03197472      3.20016396     -9.31677981e+00    1.22489276e+01    1.74751719e+00       10.91503255    -62.51310269     20.19035046  
H     -2.01687912      2.08661273      3.23815843     -2.91201082e+00    6.30181629e+00    7.69526280e+00        0.89299257     -7.80707972      3.92793939  
H     -1.95309058      2.10024901      3.13931261      1.27964696e+01    2.77676724e+00    7.88135519e+00        5.04641578    -27.96857762     17.13059286  
H     -2.00868980      2.27349864      3.16938101     -4.17192778e+00    1.88588657e+00    6.46536491e+00       -1.54997035      9.41582744     -7.75414096  
H     -1.98439085      2.21516223      3.13356245      4.95645470e+00   -1.32557985e+01   -3.46921266e-01      -18.51797102     88.62658888    -57.47690366  
H     -2.03411469      2.10429748      3.12422957     -2.13260300e+00    4.16366478e+00    1.33422926e+01        2.14379670    -25.67777903     15.43695305  
H     -1.94437503      2.00448736      3.15150840     -1.98454454e+00    4.10575007e+00   -2.40550738e+00        9.35820400    -46.94519661     25.39690342  
H     -2.07952906      1.98033996      3.19077433      6.09792734e+00    4.18793652e+00    2.31376922e+00        1.72270243    -67.75005120     37.19132335  
H     -2.11835041      1.92228053      3.11993603      1.65361264e+00   -2.77094574e+00   -1.25781175e+00       -7.99101582    -85.97687298     46.74927720  
H     -2.06223065      2.70332016      2.67425440      2.42207230e+00    8.21191376e+00   -7.70636531e+00        5.03923317    -26.85604778     17.67838301  
H     -2.12201550      2.67282193      2.73335137     -6.19600799e+00   -1.14342725e+01    3.22127552e+00        3.62375926    -11.23948667      5.70001982  
H     -2.04722229      2.66483033      2.76289875     -6.92470708e+00   -6.68824118e+00    5.86273438e-01       15.95259545    -46.76206409     24.79819038  
H     -2.17229096      2.69107389      2.73865853      3.08731944e+00    5.39733579e+00   -1.75382407e+00      -19.66178623     36.43800747    -22.58765083  
H     -2.11590986      2.67831397      2.77930523     -1.14608119e+01   -6.14991430e-01    9.45027178e+00       -9.08967089     18.40111788     -9.17798901  
H     -2.14352694      2.80140064      2.80378032      6.91073370e-01    3.14371773e+00   -7.31916226e+00       21.41699740    -49.20765342     16.96538591  
H     -2.16605010      2.87666953      2.68236719     -6.05492950e+00    2.92527724e+00   -1.26293524e-01       21.43475861    -36.11577686     19.05135997  
H     -2.23985154      2.81161839      2.75668962      2.10776119e+00   -4.45790531e+00   -5.96998429e+00       40.81400352    -47.89076122     18.43062980  
H     -2.26916717      2.71952950      2.76279213     -1.02762635e+01   -1.83311348e+00   -8.76526657e+00       48.45958797    -46.02477773     23.80745243  
H     -2.45378632      2.76936557      2.83326597      9.88204336e+00    5.89250399e+00   -8.88011286e+00       24.12782962    -19.72409769      7.34985748  
H     -2.33972821      2.78911760      2.81718216      9.42930891e+00    3.01797608e+00   -5.49174671e+00       50.40366490    -94.99870964     20.96231319  
H     -2.41201326      2.87477508      2.84946697     -2.19153892e+00    3.68542259e+00    1.01388265e+01       13.44411864    -25.06080114      2.42398954  
H     -2.39747802      2.80882960      2.93137098      9.21646486e+00    6.44885466e+00   -1.40768728e+01       46.86079650   -176.97957413      8.45162313  
H     -2.44334258      2.93253065      2.82008372     -1.98283980e+00    2.89574776e+00   -6.38613004e+00      -13.28380403     76.80468762    -10.43048350  
H     -2.47862900      2.91823093      2.75366258     -2.62583163e+00    1.71580119e+01   -4.18894581e+00      -17.38224034     81.99156968    -33.13761021  
H     -2.36184805      2.88918700      2.80617759      1.55942227e-01   -6.74353877e+00    2.33120937e+01       -9.53946411     81.10322111    -31.38883691  
H     -2.28849228      2.86886955      2.80611987     -6.83517024e+00   -6.78563762e+00    9.38025558e+00        1.49970477    -25.22701999     10.50320203  
H     -2.26858810      2.87340835      2.77947568     -1.64177704e+01   -4.21110545e-01    2.23060621e+00        5.34598931     45.74049924    -25.03661807  
H     -2.26208149      2.83302727      2.84968746     -3.80913205e+00   -1.64736424e+01    7.69011495e+00        0.24724421     64.10611067    -27.73777439  
H     -2.27968410      2.76215506      2.84915946     -1.15278232e+01    2.45501947e+00    3.21631379e+00        1.43191283     35.96218778    -17.54740334  
H     -2.29384689      2.73242630      2.90305811     -1.63459429e+00    7.79001975e-01   -8.50186673e+00       -0.19638959     -8.29723827      3.37126813  
H     -2.33153362      2.74596938      2.89087454     -8.20261847e+00    7.73059225e+00    8.32617709e+00       -8.81443942     55.45585391    -20.94517346  
H     -2.29114945      2.76678804      2.92101318      1.04927241e+01   -4.11190113e-02   -5.77030154e+00      -13.88249706     44.04088872    -13.33658150  
H     -2.19992070      2.83555356      2.94062578      1.49514858e+01    8.41273931e+00   -2.47724259e-01      -10.91503466     62.51310505    -20.19034746  
H     -2.09338169      2.75544363      2.90165286      2.94375693e+00    2.06262391e+00   -1.20410397e+01       -0.89299463      7.80708209     -3.92793643  
H     -2.07292990      2.76443025      2.73250548      7.61520809e-01   -7.27594195e+00   -6.37405973e+00       -5.04641788     27.96858012    -17.13058985  
H     -2.10039093      2.83056897      2.71062120      8.34856486e+00   -1.25182402e+01   -1.81954517e+01        1.54996833     -9.41582504      7.75414381  
H     -2.09621633      2.75035646      2.78647351     -4.35254578e+00   -4.21038543e+00    8.32893082e+00       18.51796896    -88.62658648     57.47690659  
H     -2.08999624      2.77363026      2.72184052      9.63696427e-01    2.03792564e+01    4.78676941e+00       -2.14379881     25.67778145    -15.43695013  
H     -2.08719542      2.72094223      2.76391319      7.09063139e+00    1.52903248e+01   -1.41163578e+00       -9.35820608     46.94519903    -25.39690051  
H     -2.09929459      2.75767366      2.76405780      8.81787638e+00   -6.25566832e+00   -4.21130421e+00       -1.72270457     67.75005366    -37.19132040  
H     -2.03830467      2.78350808      2.65165005      6.63532126e+00    3.80199279e+00    2.44051181e-01        7.99101362     85.97687547    -46.74927425  
H      4.35512951     -4.97725226     -5.64141098      1.81470225e+01    6.22367933e+00   -1.09689374e+00        0.00000225     -0.00000261     -0.00000301  
H      4.40080460     -4.99301522     -5.69800658     -2.50217549e+00   -1.05953144e+01   -4.11019221e+00        0.00000219     -0.00000250     -0.00000293  
H      4.39124811     -5.02044787     -5.78391084      5.66903583e+00    1.99225966e+01    3.21658327e+00        0.00000208     -0.00000243     -0.00000287  
H      4.20479968     -5.03095519     -5.90662671      3.92931805e+00    9.38264599e+00    1.44734144e+00        0.00000199     -0.00000237     -0.00000285  
H      4.27991675     -5.01975520     -5.87260547      5.00601304e+00   -9.31063554e+00    8.67738296e+00        0.00000203     -0.00000240     -0.00000288  
H      4.35467889     -4.97816359     -5.92506561      1.39390643e+00   -9.81043024e+00    4.92729881e+00        0.00000192     -0.00000225     -0.00000267  
H      4.41247619     -4.88488125     -5.97782839     -2.10347562e+00    6.22609288e+00    6.94273616e+00        0.00000192     -0.00000223     -0.00000264  
H      4.41765303     -5.07989019     -5.91548133      2.94094340e+00   -1.73491455e+00   -7.84427174e-01        0.00000184     -0.00000218     -0.00000251  
H      4.36271750     -5.06808136     -5.97259413     -9.95763594e+00   -1.55927246e+00    1.63349081e+00        0.00000183     -0.00000217     -0.00000255  
H      4.30415615     -5.07717709     -6.06177243     -1.40744686e+01   -8.36086646e+00    2.04280162e+00        0.00000169     -0.00000199     -0.00000235  
H      4.22303401     -5.09474512     -6.12242615     -4.54394398e+00   -4.46886973e+00   -2.39477508e+00        0.00000171     -0.00000202     -0.00000241  
H      4.29794257     -4.99792634     -6.11898712     -9.11766286e+00   -7.14331918e-01    8.27081888e+00        0.00000171     -0.00000197     -0.00000237  
H      4.24800215     -4.98322282     -6.08695363      7.17938282e+00   -6.27018820e+00    9.08509954e+00        0.00000172     -0.00000195     -0.00000236  
H      4.19897739     -4.93626929     -6.12169937      2.11785938e+00   -9.82215340e-01    7.44167748e+00        0.00000178     -0.00000200     -0.00000245  
H      4.28285048     -4.97022627     -6.06661110     -6.65672611e+00   -1.02610828e+01    9.66307265e+00        0.00000173     -0.00000193     -0.00000234  
H      4.33273362     -4.99113795     -5.92838585     -4.33712948e+00   -1.71150716e+00   -8.27285612e+00        0.00000181     -0.00000202     -0.00000243  
H      4.26316882     -4.88795481     -5.84273285      7.58749031e+00    2.58501474e+00   -1.70731179e+00        0.00000194     -0.00000220     -0.00000261  
H      4.30573367     -4.70282018     -5.71397947      3.50336980e+00    6.82289617e-01    7.48856140e-01        0.00000213     -0.00000232     -0.00000280  
H      4.27833432     -4.75293490     -5.76458245      7.07674701e-01    6.60745582e+00   -4.40099163e+00        0.00000209     -0.00000229     -0.00000282  
H      4.26791088     -4.73854753     -5.81345567      7.46318533e+00    1.50807485e+01    4.81026732e+00        0.00000208     -0.00000225     -0.00000280  
H      4.29434805     -4.74673268     -5.86671336      1.49066009e+01   -5.28858659e+00   -7.43478269e-01        0.00000201     -0.00000217     -0.00000272  
H      4.20839786     -4.72475385     -5.83735656      7.24551584e+00    5.52687654e+00   -6.16235330e+00        0.00000212     -0.00000230     -0.00000291  
H      4.23427774     -4.78508576     -5.86611186      2.51906208e+00   -7.19906490e+00    3.94666732e+00        0.00000205     -0.00000229     -0.00000286  
H      4.15737575     -4.65713076     -5.88025634     -4.36532535e+00    9.95023645e+00    2.32429487e+00        0.00000210     -0.00000236     -0.00000300  
H      4.17463642     -4.75560411     -5.87343630      8.16676342e+00    5.24176128e+00   -8.04787021e+00        0.00000206     -0.00000237     -0.00000296  
H      4.14302238     -4.89444527     -5.85791192     -5.71473685e+00    6.48931774e+00    2.22689162e+00        0.00000210     -0.00000250     -0.00000301  
H      4.19140786     -4.83940671     -5.85782376     -9.50840964e+00   -9.62639342e+00   -1.44678534e+00        0.00000203     -0.00000240     -0.00000286  
H      4.19255917     -4.81123074     -5.88834366     -7.16878213e+00   -4.03065928e+00   -8.67668076e+00        0.00000206     -0.00000241     -0.00000293  
H      4.27974004     -4.83350149     -5.84321578      1.01177749e+01    8.10847486e+00   -1.13247702e+00        0.00000211     -0.00000242     -0.00000292  
H      4.26221652     -4.95115053     -5.83500742      2.48409924e+01    1.43801368e+00   -3.84292928e+00        0.00000208     -0.00000242     -0.00000292  
H      4.25464399     -4.92937296     -5.72783195      4.59864092e+00   -2.63472426e+00   -1.78430080e+01        0.00000215     -0.00000246     -0.00000295  
H      4.34090856     -4.95480736     -5.72567323      9.61499813e+00    9.36808058e+00    2.50059253e+00        0.00000220     -0.00000249     -0.00000295  
