3
100000  xi=   0.85778606  Mean pot=  -105.44709649  Cent pot=  -109.46625311 kcal/mol
H     -0.27390760      0.03985589     -1.35431435       0.19246616
H     -0.39960315      0.02016798     -0.63617207       0.19412909
H      0.67351074     -0.06002387      1.99048642       0.18783429
3
200000  xi=   0.86599966  Mean pot=  -107.50073737  Cent pot=  -109.48748650 kcal/mol
H      0.08994259      0.20566270      0.76555192       0.17275725
H      0.30602318      0.91495242      0.81717023       0.22558333
H     -0.39596578     -1.12061512     -1.58272214       0.16587415
3
300000  xi=   0.85386432  Mean pot=  -107.44370873  Cent pot=  -109.50461686 kcal/mol
H      0.28804807     -0.51914071     -1.30802858       0.20356749
H      0.00889036     -0.32585014     -0.66008944       0.21271930
H     -0.29693844      0.84499085      1.96811802       0.21514823
3
400000  xi=   0.85595947  Mean pot=  -106.11877654  Cent pot=  -108.67833565 kcal/mol
H     -0.29547626     -0.65496291     -0.87650677       0.18433503
H      0.21516276     -0.17776559     -0.90536975       0.22289149
H      0.08031349      0.83272850      1.78187653       0.15928665
3
500000  xi=   0.85635459  Mean pot=  -107.29482683  Cent pot=  -109.15381911 kcal/mol
H     -0.69336758     -0.11860292      0.82731923       0.15005400
H     -0.05299670      0.16514519      0.96985681       0.22772439
H      0.74636428     -0.04654226     -1.79717605       0.22567480
3
600000  xi=   0.85490887  Mean pot=  -107.42651312  Cent pot=  -109.52227416 kcal/mol
H      0.45076763     -0.18169639     -0.66885842       0.14739107
H      0.14211154     -0.62024463     -1.18710109       0.17942180
H     -0.59287917      0.80194102      1.85595951       0.14474512
3
700000  xi=   0.86415146  Mean pot=  -106.46922971  Cent pot=  -109.44355464 kcal/mol
H     -0.13963142     -0.27068120      0.64618518       0.20390946
H     -0.68229895     -0.65214584      1.00833065       0.17114675
H      0.82193037      0.92282704     -1.65451583       0.18927442
3
800000  xi=   0.85048960  Mean pot=  -105.81179582  Cent pot=  -109.19520741 kcal/mol
H     -0.14928889     -0.89692216      0.25225381       0.20495644
H     -0.12048015     -1.18232157     -0.46305232       0.19082228
H      0.26976903      2.07924373      0.21079852       0.26126343
3
900000  xi=   0.85389190  Mean pot=  -103.58627204  Cent pot=  -108.56876083 kcal/mol
H     -0.62707285     -0.06517658     -0.70448491       0.20907516
H     -0.16225191      0.24572828     -1.11977807       0.21505788
H      0.78932476     -0.18055169      1.82426298       0.21570924
3
1000000  xi=   0.85693630  Mean pot=  -107.62797074  Cent pot=  -109.42972947 kcal/mol
H      0.09083742      0.12700327      1.29089331       0.17174011
H     -0.37230397     -0.00700319      0.74642374       0.17635729
H      0.28146655     -0.12000008     -2.03731705       0.23524639
3
1100000  xi=   0.86148544  Mean pot=  -105.77993464  Cent pot=  -108.49392126 kcal/mol
H     -0.98956305      0.85286798      0.00532871       0.16969937
H     -0.42990725      0.55880551     -0.28275205       0.12227683
H      1.41947029     -1.41167350      0.27742334       0.22964705
3
1200000  xi=   0.85968270  Mean pot=  -105.18600998  Cent pot=  -107.96365039 kcal/mol
H     -0.26998968     -0.50352797     -0.88244917       0.14722749
H      0.07240767     -0.98498763     -0.33517565       0.15302022
H      0.19758201      1.48851560      1.21762482       0.24102196
3
1300000  xi=   0.86677669  Mean pot=  -106.55754964  Cent pot=  -108.20008068 kcal/mol
H     -0.50770371     -0.31141088     -0.71858459       0.16658715
H     -0.20740080      0.26419231     -0.95610846       0.18427770
H      0.71510450      0.04721857      1.67469306       0.21784064
3
1400000  xi=   0.86324872  Mean pot=  -107.33995213  Cent pot=  -107.37846260 kcal/mol
H     -0.05438986      1.08720443      0.22211860       0.22184634
H     -0.46360936      0.60300416      0.45693329       0.25766271
H      0.51799922     -1.69020858     -0.67905190       0.22224968
3
1500000  xi=   0.86412965  Mean pot=  -106.40505643  Cent pot=  -109.49838970 kcal/mol
H     -0.94831872     -0.45812825     -0.90633899       0.16593114
H     -0.31028214     -0.32827101     -0.53461635       0.19785515
H      1.25860086      0.78639926      1.44095534       0.18017418
3
1600000  xi=   0.85689944  Mean pot=  -105.73929231  Cent pot=  -108.81793404 kcal/mol
H      0.49823447      0.51939479      1.17171877       0.21992085
H      0.27245183      0.46744527      0.50905146       0.24539281
H     -0.77068630     -0.98684006     -1.68077022       0.26497254
3
1700000  xi=   0.85422861  Mean pot=  -105.92142398  Cent pot=  -108.16302873 kcal/mol
H     -0.19176538     -1.31509651     -0.22875263       0.15022866
H     -0.39022367     -0.73317072      0.28766531       0.16585481
H      0.58198905      2.04826724     -0.05891269       0.20501597
3
1800000  xi=   0.86985153  Mean pot=  -106.61553111  Cent pot=  -109.05549923 kcal/mol
H     -0.99270698     -0.44642492     -0.34967337       0.21417363
H     -0.63235688     -0.48217209      0.26483257       0.20121931
H      1.62506386      0.92859701      0.08484080       0.17485832
3
1900000  xi=   0.85879099  Mean pot=  -106.83177157  Cent pot=  -109.27374198 kcal/mol
H     -0.28167176     -0.88993201      0.35989377       0.16541412
H      0.41500355     -1.00048663      0.06936675       0.13446482
H     -0.13333178      1.89041864     -0.42926052       0.22224427
3
2000000  xi=   0.86277956  Mean pot=  -107.23797643  Cent pot=  -109.47507544 kcal/mol
H     -0.46228743     -0.05486584      0.58198047       0.16683048
H     -1.18037954     -0.19429236      0.60945908       0.15527347
H      1.64266697      0.24915820     -1.19143954       0.23009255
