3
100000  xi=   0.45969746  Mean pot=  -106.94696424  Cent pot=  -109.47705214 kcal/mol
H      0.37696572      2.18825501     -1.99393235       0.17560087
H      0.24112023      2.63421281     -1.42621462       0.19529617
H     -0.61808595     -4.82246782      3.42014697       0.19078855
3
200000  xi=   0.46193283  Mean pot=  -104.92888360  Cent pot=  -109.36356269 kcal/mol
H     -1.80946465     -1.17111577     -2.04724625       0.16089791
H     -2.18132356     -0.55512490     -1.96720628       0.20448730
H      3.99078822      1.72624067      4.01445253       0.17150859
3
300000  xi=   0.45526471  Mean pot=  -106.42126842  Cent pot=  -109.29804761 kcal/mol
H      2.18913912     -0.92412084      1.28550096       0.18103449
H      2.63668435     -1.36748325      1.63448021       0.15529531
H     -4.82582347      2.29160409     -2.91998116       0.16441973
3
400000  xi=   0.45963800  Mean pot=  -103.60028843  Cent pot=  -109.05440705 kcal/mol
H      0.95954113      0.12899623      2.68938855       0.16111221
H      1.27197990     -0.48859803      2.84781642       0.13752219
H     -2.23152103      0.35960180     -5.53720497       0.18730085
3
500000  xi=   0.45803744  Mean pot=  -105.36042646  Cent pot=  -109.44529041 kcal/mol
H     -1.45588357     -1.54072570      1.73199198       0.18288683
H     -1.61904825     -1.55721485      2.46694465       0.19997128
H      3.07493181      3.09794055     -4.19893664       0.24876933
3
600000  xi=   0.46123582  Mean pot=  -106.50642302  Cent pot=  -109.27763071 kcal/mol
H      2.52950875     -1.56655575      0.48440723       0.13270233
H      2.02869612     -2.13920665      0.40136109       0.23276849
H     -4.55820486      3.70576240     -0.88576831       0.19332454
3
700000  xi=   0.45624149  Mean pot=  -106.50972656  Cent pot=  -108.93313752 kcal/mol
H     -1.03009102     -0.60738267     -2.50442568       0.16410636
H     -1.66244766     -1.02441059     -2.69081649       0.12056241
H      2.69253868      1.63179327      5.19524217       0.24472327
3
800000  xi=   0.45964886  Mean pot=  -106.40029744  Cent pot=  -108.68624241 kcal/mol
H      2.70789276      0.39829140      0.21670824       0.15347258
H      3.12947897      0.80018091      0.60386308       0.16049434
H     -5.83737173     -1.19847231     -0.82057132       0.24473393
3
900000  xi=   0.45432456  Mean pot=  -107.54026391  Cent pot=  -109.47152373 kcal/mol
H     -1.49062623      0.00050804      2.33270324       0.15639239
H     -1.48967556      0.38951943      2.95481605       0.15968135
H      2.98030179     -0.39002748     -5.28751930       0.17550021
3
1000000  xi=   0.46270429  Mean pot=  -107.82977616  Cent pot=  -109.40817780 kcal/mol
H     -2.67495834     -0.15709118     -1.05860388       0.16910753
H     -2.54218025     -0.43772301     -1.74854675       0.17670593
H      5.21713859      0.59481419      2.80715063       0.16739624
3
1100000  xi=   0.47193963  Mean pot=  -105.26211363  Cent pot=  -108.85768766 kcal/mol
H      1.77123622      0.57789486      2.19659049       0.20809267
H      1.25058811      0.50284607      2.66434574       0.22856468
H     -3.02182433     -1.08074093     -4.86093623       0.17510223
3
1200000  xi=   0.48098661  Mean pot=  -105.80396670  Cent pot=  -109.11368306 kcal/mol
H      0.31530984      0.61300357      2.93637466       0.22261772
H      0.31853243      1.24562665      2.49198232       0.18391768
H     -0.63384227     -1.85863021     -5.42835698       0.15737865
3
1300000  xi=   0.46335771  Mean pot=  -105.98736660  Cent pot=  -108.76420861 kcal/mol
H     -1.54697141      0.36643598     -2.25624183       0.17547193
H     -1.47219220      0.86699065     -2.74181343       0.20361251
H      3.01916361     -1.23342663      4.99805526       0.23161940
3
1400000  xi=   0.45925267  Mean pot=  -106.17427355  Cent pot=  -106.74675301 kcal/mol
H      2.53704616      0.77892020     -0.70333393       0.22060521
H      2.85549281      1.02713172     -1.23389255       0.19673375
H     -5.39253897     -1.80605192      1.93722648       0.24139662
3
1500000  xi=   0.45744649  Mean pot=  -105.56978776  Cent pot=  -109.49728877 kcal/mol
H     -2.43158534      1.27630689     -1.81841234       0.24383154
H     -2.33032260      0.73817982     -1.31654232       0.21270807
H      4.76190794     -2.01448671      3.13495466       0.15674626
3
1600000  xi=   0.45899150  Mean pot=  -105.75201087  Cent pot=  -108.85931802 kcal/mol
H      1.98239260      0.41923079      1.98290598       0.16152203
H      2.54357516      0.78082118      1.75953711       0.15268681
H     -4.52596777     -1.20005197     -3.74244309       0.23934885
3
1700000  xi=   0.45527394  Mean pot=  -107.20537732  Cent pot=  -109.47415900 kcal/mol
H     -2.04302097      1.07901896     -2.29080118       0.25819707
H     -1.81772573      1.38656154     -1.66341999       0.12651389
H      3.86074669     -2.46558050      3.95422117       0.25156501
3
1800000  xi=   0.46904872  Mean pot=  -107.76218878  Cent pot=  -109.49196690 kcal/mol
H      1.35986359      2.76176734      0.90850492       0.18701131
H      1.42458519      2.32365450      0.30892298       0.17214385
H     -2.78444878     -5.08542184     -1.21742790       0.20674269
3
1900000  xi=   0.46259261  Mean pot=  -105.99019833  Cent pot=  -109.43481145 kcal/mol
H      0.42112948     -3.04627238      0.45025516       0.22054506
H      1.02119772     -2.63884201      0.52787672       0.15398625
H     -1.44232720      5.68511439     -0.97813189       0.21440674
3
2000000  xi=   0.47065605  Mean pot=  -103.90680198  Cent pot=  -109.37089254 kcal/mol
H     -0.08096788      3.08835863     -1.17396724       0.21623630
H      0.14018727      2.36207790     -1.19399929       0.18528963
H     -0.05921939     -5.45043653      2.36796653       0.19183728
