3
100000  xi=  -0.03256359  Mean pot=  -106.98937750  Cent pot=  -107.95840019 kcal/mol
H     -3.14158469      3.09708164      3.44625963       0.22609465
H     -3.30228219      2.43309146      3.40455532       0.23533271
H      6.44386689     -5.53017310     -6.85081494       0.18324103
3
200000  xi=  -0.04115043  Mean pot=  -106.97723721  Cent pot=  -109.49040726 kcal/mol
H     -1.05576911     -1.83361192      4.69770290       0.24330286
H     -1.36618393     -1.82973502      5.37588397       0.24288454
H      2.42195303      3.66334694    -10.07358687       0.21349235
3
300000  xi=  -0.03951753  Mean pot=  -107.35969609  Cent pot=  -109.48194386 kcal/mol
H     -2.24660078     -1.31745927     -5.11172334       0.13671863
H     -1.56521403     -1.40169629     -4.81526264       0.17387245
H      3.81181481      2.71915556      9.92698599       0.20424387
3
400000  xi=  -0.03661950  Mean pot=  -104.85924106  Cent pot=  -109.49271221 kcal/mol
H     -4.20596160      0.79402810     -3.95669630       0.23618063
H     -3.63195912      0.54817047     -3.56306643       0.18257942
H      7.83792072     -1.34219856      7.51976274       0.18206907
3
500000  xi=  -0.02723481  Mean pot=  -107.21441469  Cent pot=  -109.37392287 kcal/mol
H     -0.10657208     -1.42112442     -5.01754762       0.18065535
H      0.35483567     -1.17507109     -5.51923181       0.21084782
H     -0.24826359      2.59619551     10.53677943       0.12768437
3
600000  xi=  -0.03862057  Mean pot=  -107.95713648  Cent pot=  -109.33629642 kcal/mol
H     -5.49541774      0.58358139      0.95487897       0.23027132
H     -5.35440602     -0.00834901      0.56571394       0.17267533
H     10.84982377     -0.57523238     -1.52059291       0.22608696
3
700000  xi=  -0.02559054  Mean pot=  -105.52658981  Cent pot=  -109.23665271 kcal/mol
H      2.92312041      4.24942034      1.64484412       0.18364242
H      2.32861386      4.65045217      1.63529708       0.19371991
H     -5.25173427     -8.89987251     -3.28014120       0.21830276
3
800000  xi=  -0.03708171  Mean pot=  -106.81715056  Cent pot=  -109.46594892 kcal/mol
H      5.52932298     -0.28007388      1.02850667       0.21445529
H      5.22828944      0.40736264      1.03275683       0.16215036
H    -10.75761242     -0.12728876     -2.06126349       0.13630241
3
900000  xi=  -0.04999017  Mean pot=  -106.35555293  Cent pot=  -109.48474286 kcal/mol
H      3.56854395     -2.14514197     -3.51128002       0.20669911
H      3.96222364     -2.60431447     -3.09180709       0.18307717
H     -7.53076759      4.74945643      6.60308711       0.21740130
3
1000000  xi=  -0.03006473  Mean pot=  -105.96338512  Cent pot=  -109.45817480 kcal/mol
H     -2.33832965     -3.81224486      3.68002633       0.27386948
H     -1.95685856     -3.26378671      3.38097357       0.18681241
H      4.29518821      7.07603157     -7.06099989       0.18465659
3
1100000  xi=  -0.05003625  Mean pot=  -107.51803958  Cent pot=  -109.47812889 kcal/mol
H      1.01860370     -5.41112748     -0.16989825       0.22067044
H      1.74160301     -5.32430076     -0.07162183       0.19664888
H     -2.76020671     10.73542824      0.24152008       0.16713920
3
1200000  xi=  -0.03756143  Mean pot=  -106.92946886  Cent pot=  -109.48099708 kcal/mol
H     -2.32736510      4.74954608     -2.42143776       0.18041818
H     -2.10163024      4.05199625     -2.36530577       0.15752959
H      4.42899534     -8.80154233      4.78674353       0.31647255
3
1300000  xi=  -0.03371059  Mean pot=  -106.71655002  Cent pot=  -109.45749214 kcal/mol
H      0.68618503      3.50951559     -3.81432627       0.19657252
H      1.34265155      3.71189759     -4.11925546       0.15720555
H     -2.02883659     -7.22141319      7.93358173       0.16746817
3
1400000  xi=  -0.04887273  Mean pot=  -105.24850641  Cent pot=  -108.85618438 kcal/mol
H      5.35474972     -0.21629771      1.06607639       0.19278155
H      5.44624649     -0.91296310      1.10768361       0.17098102
H    -10.80099622      1.12926081     -2.17376000       0.17581576
3
1500000  xi=  -0.04010183  Mean pot=  -105.96094112  Cent pot=  -108.94180500 kcal/mol
H     -2.91643343     -4.00510184      2.01995449       0.20478501
H     -2.96508027     -4.57905484      1.49435519       0.14918986
H      5.88151371      8.58415669     -3.51430968       0.18595730
3
1600000  xi=  -0.03920935  Mean pot=  -107.47744265  Cent pot=  -109.23469978 kcal/mol
H     -0.30750827     -3.48407794     -4.18048376       0.31298568
H     -0.92511738     -3.21679948     -4.42817216       0.16350348
H      1.23262565      6.70087742      8.60865592       0.18120032
3
1700000  xi=  -0.04485215  Mean pot=  -106.22645510  Cent pot=  -109.44703366 kcal/mol
H     -1.10371304     -4.47943812      2.51802760       0.24465989
H     -0.90470576     -4.75693400      3.16401951       0.22984563
H      2.00841880      9.23637211     -5.68204711       0.19628419
3
1800000  xi=  -0.04076506  Mean pot=  -107.00183569  Cent pot=  -109.19362864 kcal/mol
H     -1.59648376      1.59894375      4.75414253       0.21294125
H     -1.14020638      1.68556249      5.36773651       0.16109602
H      2.73669014     -3.28450624    -10.12187904       0.19384716
3
1900000  xi=  -0.03555104  Mean pot=  -105.59778010  Cent pot=  -109.28895043 kcal/mol
H     -0.87769885     -4.70793196      3.11113401       0.20836530
H     -1.24403503     -4.38709513      2.58118780       0.18840104
H      2.12173388      9.09502709     -5.69232182       0.20817072
3
2000000  xi=  -0.03637778  Mean pot=  -106.63414055  Cent pot=  -109.43084606 kcal/mol
H     -1.01016590     -1.74434821      4.73242292       0.20397830
H     -0.81522823     -2.00583700      5.38449460       0.27416499
H      1.82539413      3.75018521    -10.11691752       0.25078274
