96
100000  xi=   0.78007414  Mean pot=  -107.42265429  Cent pot=  -109.25105351 kcal/mol
H      0.01782722      0.23252268     -1.60407592      5.09728408e-01   -2.21446372e+00   -3.39529843e+00       10.58835974     -1.25176049     -8.45248730  
H      0.02454970      0.13358048     -1.57538460     -1.19289927e+01   -3.04756529e+00    5.73487549e+00       32.63747577     -8.62387924    -23.95829349  
H      0.05429628      0.13655468     -1.41555040     -5.98537346e+00    2.65953199e+00   -4.63091617e+00     -156.28177624     53.74856972     56.07086729  
H      0.08494181      0.19356685     -1.50061318     -6.83675342e+00   -3.49748580e+00   -5.55350474e+00       45.45895558     -4.97463868    -25.32918853  
H      0.05466185      0.20097223     -1.53274912      4.09380044e-01    1.41252348e+00    1.47212759e+01       -1.57608124      0.09744128      1.29195295  
H      0.01912248      0.45280479     -1.56072838     -4.38898605e+00    4.08176805e+00    1.19585201e+01       25.05137432      7.90637131    -19.34044813  
H     -0.03089751      0.55558371     -1.73397104     -7.92981263e-01   -2.45590898e+00    8.02461261e-03       33.75192346     13.16324334    -45.03138821  
H     -0.05490422      0.58429936     -1.67197596      1.06948726e+00   -4.89105396e+00    4.17388155e+00       31.62033225     21.33339088    -37.52414214  
H     -0.11083908      0.54459912     -1.55886610     -3.99043230e+00    5.00478157e+00   -1.58875355e+00      -38.71341217    -36.69425631     39.07659014  
H     -0.26674598      0.58992820     -1.49461231     -3.32029131e+00    2.82477033e+00    6.52715978e+00      -78.52044229    -75.29515352     71.95983575  
H     -0.20745473      0.57446936     -1.51675191      9.46989811e+00   -1.01995741e+01   -1.40309053e-01       -5.04461942     -4.16932934      3.19773440  
H     -0.26921372      0.66785812     -1.61384956     -2.40806481e+00    8.50246965e-01   -1.48370182e+00       40.55508434     41.21987588    -42.83054946  
H     -0.39811401      0.47142506     -1.63341127      5.44908793e+00   -4.77040529e+00   -1.13354456e+01       22.30167645     11.47808633    -39.99965005  
H     -0.41911810      0.44449612     -1.71818207     -4.77916586e+00    2.52680877e-01   -3.50767863e-01       35.70295132     14.94428082    -59.20663173  
H     -0.41236073      0.47630856     -1.64502321     -9.12879809e+00    1.46994266e+01   -2.54911634e+00       40.89823177     21.38166999    -55.97645393  
H     -0.43766671      0.37579455     -1.57456655      2.32098718e+00    4.13238015e+00    6.21681129e+00      -17.39306595     -7.21343873     37.75152955  
H     -0.37657363      0.56223843     -1.56151543     -9.14425364e+00   -6.69744564e+00    1.67959893e+00      -12.52419102    -12.77112137     20.78605368  
H     -0.43632614      0.49862191     -1.54844841     -6.68819761e+00   -3.12360489e-01   -1.63274557e+00      -17.66395774    -15.75575462     35.48936013  
H     -0.30983908      0.38828424     -1.47204736     -2.17134908e+00   -9.30474233e+00    2.67108560e+00      -17.64812215     -7.59620068     20.39904557  
H     -0.35339562      0.43946922     -1.40070361     -5.31502284e+00    8.55668949e+00    1.19388616e+00      -44.49745738    -38.15912816     40.23975979  
H     -0.27431329      0.43707743     -1.33493024     -3.20694953e+00   -4.27121734e+00    9.14834246e-01       10.05938933      6.34330008     -4.77734856  
H     -0.24497305      0.38306025     -1.24838372     -4.33619010e+00    1.10402714e+01    7.80154899e+00      -45.25278364    -26.05262703      7.88053570  
H     -0.05814535      0.46236296     -1.26068661     -6.88214204e+00   -3.04720008e+00   -6.34786471e+00       67.52126678     37.31179164    -10.55045093  
H     -0.05259783      0.43076323     -1.29903538     -4.33183511e+00    4.88412283e+00    6.39605224e-01       33.35121394     13.56357973    -12.95990271  
H     -0.00361112      0.35195516     -1.35405924      4.76869846e+00   -2.55085400e+00    2.03188647e+00       12.93936439      3.02337704     -7.63078122  
H      0.02781387      0.35602662     -1.53107660      1.61011478e+01   -1.96295678e+00    8.80591665e-01       26.10204730      5.69908389    -19.51230458  
H      0.01194025      0.49386558     -1.54564423     -2.44503579e+00   -6.50110340e+00   -1.03876674e+01       52.59488521     13.44000454    -39.24481142  
H     -0.13621749      0.47066195     -1.55679781      3.88201945e+00   -5.44730078e+00   -4.53670478e-01      -12.34330782     -9.36009092     19.99521063  
H     -0.09356697      0.34716228     -1.57953897      4.90778596e+00    1.40390188e+01    7.07051791e+00       -9.56204420     -2.09673962     10.73274188  
H     -0.07444562      0.22983242     -1.57231078      3.82043363e+00   -9.79150748e-01   -4.29653692e+00       -7.44469635     -0.39598047     10.39656558  
H     -0.13081787      0.19448721     -1.55492713      1.07749771e+01   -1.10967063e+00   -2.01852482e+00        5.57619251     -0.73778716     -7.26739183  
H     -0.07322243      0.15214553     -1.63757531      1.47297628e+01   -4.24962366e+00   -4.97950061e+00       29.66399417     -6.09211482    -31.14303112  
H     -0.57301391      0.30243174     -1.13279259      5.97453739e+00    1.32287771e+00   -5.66147546e+00      -10.59590366      1.25728257      8.42944093  
H     -0.60792275      0.30071803     -1.11125374     -8.02129576e+00   -3.23874413e+00    1.24875708e+00      -32.64606812      8.62983088     23.93359189  
H     -0.49092527      0.32406061     -1.21987967     -7.95942404e+00   -6.96633098e+00   -1.58666756e+00      156.27338597    -53.74155418    -56.10003617  
H     -0.63081731      0.27192133     -1.10194402      9.26071053e+00    6.02848917e+00   -6.76821896e+00      -45.46820390      4.98237954     25.29982006  
H     -0.51468540      0.23552652     -1.06256974     -2.00222919e+00    4.56796253e+00    4.03580172e+00        1.56700745     -0.09010823     -1.32092583  
H     -0.58545149      0.26204925     -1.09415285      3.40209135e+00    5.65885060e+00    3.22912413e+00      -25.06181466     -7.89878338     19.31183225  
H     -0.51853616      0.36543955     -1.08349533      7.94264859e+00   -5.00611857e+00    4.64548117e+00      -33.76331900    -13.15499524     45.00081447  
H     -0.54285560      0.25513595     -1.09303633      3.50032176e+00   -6.88062736e+00   -1.08343140e+01      -31.63099998    -21.32501864     37.49575467  
H     -0.50732962      0.16873647     -1.15854114     -9.03349497e+00   -8.15341410e+00   -6.85998050e+00       38.70426580     36.70182543    -39.10345424  
H     -0.64783229      0.22444948     -1.14527458      3.40504098e+00   -5.55902325e+00   -1.22755432e+01       78.51069110     75.30418549    -71.98791046  
H     -0.71462602      0.15476949     -1.19417825     -7.68580735e+00    8.11489007e+00    6.72442460e+00        5.03402361      4.17802113     -3.22682291  
H     -0.75998053      0.16908235     -1.09562034     -3.25801502e-01    5.27189619e+00    1.88475899e+01      -40.56891565    -41.21136334     42.79885759  
H     -0.78219329      0.27379903     -0.94470872     -1.72357436e-01   -1.42019210e+00   -1.02865102e+01      -22.31539765    -11.46892148     39.96814924  
H     -0.85692235      0.26127932     -0.99230311     -6.32884372e+00   -7.42925639e+00   -1.79145211e+01      -35.71737449    -14.93525866     59.17338315  
H     -0.90424055      0.21918464     -0.97189979     -9.87003204e+00    1.27449493e+01    5.83176151e+00      -40.91324437    -21.37308923     55.94473411  
H     -0.72524609      0.25649760     -0.95025326      3.30506711e+00   -3.58368972e+00    1.59535801e+01       17.38144311      7.22072882    -37.77827141  
H     -0.70150622      0.23082212     -1.02203298      2.55862977e+00   -1.15796140e+01   -2.75269294e+00       12.51395406     12.77741150    -20.81254360  
H     -0.72498036      0.24111653     -0.96838828     -1.35797579e+00    1.10327619e+00    7.22061874e+00       17.65392635     15.76032056    -35.51441356  
H     -0.75752678      0.19552810     -0.95433019     -3.44019382e+00   -6.85548794e+00   -9.25104542e-02       17.63756811      7.60129109    -20.42629765  
H     -0.77475376      0.07807786     -1.01952046     -9.21792517e+00   -1.49663761e+01    6.16929465e-01       44.48696751     38.16410431    -40.26811509  
H     -0.86955035      0.06200133     -1.05300360      2.24579855e+00   -2.29456644e+00   -5.34868859e+00      -10.07083035     -6.33820456      4.74831894  
H     -0.83471422      0.04346214     -1.14546110      4.40363686e+00   -6.12064570e+00    3.19704275e+00       45.24222622     26.05800717     -7.91207581  
H     -0.82900156      0.03646505     -1.14043999      1.60308032e+01    8.24019998e+00   -7.94710076e+00      -67.53038968    -37.30572700     10.52062114  
H     -0.74698104      0.14842911     -1.02944835      1.06527241e+01    1.46897433e+01    1.44353345e+00      -33.36083910    -13.55865382     12.93019380  
H     -0.64675080      0.20179603     -0.97528819     -4.05080696e+00    9.82700549e+00   -5.80866436e+00      -12.94908882     -3.01750396      7.60042606  
H     -0.59389581      0.22032269     -1.06648883     -1.86377957e+00   -3.62162972e+00    1.21368015e+00      -26.11131690     -5.69228150     19.48224151  
H     -0.66106788      0.32190515     -1.04353680      7.30483233e+00   -5.22005252e+00   -7.80500462e-01      -52.60555232    -13.43260412     39.21408920  
H     -0.48446983      0.20652499     -0.99247898     -2.59617070e+00   -1.31148657e+01    9.02417799e+00       12.33369560      9.36638615    -20.02522555  
H     -0.57060491      0.24246872     -1.04366586     -5.39221725e+00    9.41629839e+00    1.16292989e+01        9.55247323      2.10278016    -10.76096337  
H     -0.49724680      0.20726482     -0.98140961      1.97374041e+00    1.92796318e+01    1.04800391e+00        7.43524624      0.40275959    -10.42547287  
H     -0.58811386      0.25507298     -0.95956208      4.82990628e+00   -2.04060948e+00    6.95648888e-01       -5.58565685      0.74424568      7.23954627  
H     -0.62356555      0.26518372     -1.05991201     -5.75511099e+00    4.18823187e+00    4.52748793e+00      -29.67349544      6.09826988     31.11665316  
H      0.89523859     -0.68870626      2.82776441      1.74588198e+01    7.30849817e+00   -1.65969522e+00        0.00754392     -0.00552208      0.02304637  
H      0.94095384     -0.70442657      2.77115153     -3.19475936e+00   -9.50946370e+00   -4.66588541e+00        0.00859235     -0.00595163      0.02470160  
H      0.93143388     -0.73179814      2.68517788      4.97869845e+00    2.10129787e+01    2.64728021e+00        0.00839027     -0.00701554      0.02916888  
H      0.74491730     -0.74228113      2.56241392      3.24306589e+00    1.04714145e+01    8.81337618e-01        0.00924832     -0.00774086      0.02936847  
H      0.82005781     -0.73101376      2.59635768      4.31671874e+00   -8.21055285e+00    8.10245570e+00        0.00907379     -0.00733305      0.02897289  
H      0.89469903     -0.68940886      2.54388819      7.04169342e-01   -8.71728608e+00    4.36171931e+00        0.01044034     -0.00758793      0.02861588  
H      0.95244587     -0.59612634      2.49111943     -2.79232771e+00    7.32846878e+00    6.36801713e+00        0.01139554     -0.00824810      0.03057374  
H      0.95757544     -0.79110137      2.55346688      2.25087660e+00   -6.38488940e-01   -1.35397943e+00        0.01066773     -0.00837224      0.02838747  
H      0.90257181     -0.77930464      2.49631469     -1.06436462e+01   -4.54911655e-01    1.05645898e+00        0.00914636     -0.00756912      0.02686409  
H      0.84405061     -0.78839076      2.40706651     -1.47682357e+01   -7.25838389e+00    1.46354336e+00        0.00975119     -0.00903197      0.02807471  
H      0.76285238     -0.80598383      2.34640578     -5.23101264e+00   -3.36607554e+00   -2.96748691e+00        0.01059581     -0.00869179      0.02908851  
H      0.83781738     -0.70916214      2.34978700     -9.80834097e+00    3.86749098e-01    7.69225766e+00        0.01383132     -0.00851254      0.03169187  
H      0.78789603     -0.69450536      2.38181377      6.48691529e+00   -5.17608729e+00    8.51407675e+00        0.01372120     -0.00916484      0.03150080  
H      0.73889902     -0.64757338      2.34710323      1.43362197e+00    1.19825387e-01    6.85807074e+00        0.01442316     -0.00902215      0.03324858  
H      0.82290022     -0.68151157      2.40219719     -7.35127959e+00   -9.16629268e+00    9.09132721e+00        0.01501260     -0.00858076      0.03171982  
H      0.87276673     -0.70248410      2.54053225     -5.02561123e+00   -6.14883703e-01   -8.84609262e+00        0.01162284     -0.00729010      0.02674186  
H      0.80329569     -0.59928926      2.62624054      6.89307438e+00    3.67286203e+00   -2.27928386e+00        0.01023696     -0.00629013      0.02648992  
H      0.84587654     -0.41416551      2.75505552      2.81315259e+00    1.76958003e+00    1.76496583e-01        0.01003139     -0.00456594      0.02505343  
H      0.81848011     -0.46433564      2.70449558      1.91283687e-02    7.70008560e+00   -4.98357140e+00        0.01055403     -0.00509041      0.02725208  
H      0.80810921     -0.44997041      2.65563175      6.76402962e+00    1.61638967e+01    4.24159295e+00        0.01048988     -0.00497615      0.02835530  
H      0.83446008     -0.45823412      2.60241111      1.42163358e+01   -4.19732421e+00   -1.32775977e+00        0.01144102     -0.00509552      0.02902962  
H      0.74855315     -0.43632280      2.63177111      6.55332315e+00    6.60812126e+00   -6.73572933e+00        0.01055742     -0.00538014      0.03154010  
H      0.77436826     -0.49671396      2.60304898      1.83248589e+00   -6.11120882e+00    3.36433141e+00        0.00912290     -0.00606464      0.02982978  
H      0.69743120     -0.36880702      2.58896941     -5.05236871e+00    1.10390894e+01    1.74506757e+00        0.00962516     -0.00492591      0.02970891  
H      0.71474635     -0.46726729      2.59581017      7.47985647e+00    6.32731838e+00   -8.62444238e+00        0.00972444     -0.00587308      0.03035516  
H      0.68305919     -0.60615575      2.61137339     -6.39198786e+00    7.57821988e+00    1.64839054e+00        0.00926960     -0.00680239      0.03006307  
H      0.73148691     -0.55107423      2.61143504     -1.01943443e+01   -8.54066375e+00   -2.01522495e+00        0.01066710     -0.00740041      0.03072222  
H      0.73261048     -0.52291775      2.58094163     -7.84823378e+00   -2.93305753e+00   -9.26281046e+00        0.00961222     -0.00629523      0.03001492  
H      0.81981676     -0.54520915      2.62602923      9.43193716e+00    9.19645880e+00   -1.70064934e+00        0.00957096     -0.00604053      0.02822150  
H      0.80234106     -0.66279209      2.63421176      2.41526827e+01    2.53135648e+00   -4.41820213e+00        0.00945011     -0.00677913      0.02890729  
H      0.79473198     -0.64095850      2.74139093      3.91129361e+00   -1.54881254e+00   -1.84091698e+01        0.00946433     -0.00645852      0.02784556  
H      0.88107227     -0.66630927      2.74348669      8.92662183e+00    1.04571773e+01    1.93137698e+00        0.00950127     -0.00615506      0.02637796  
