3
100000  xi=   0.67997917  Mean pot=  -106.11988864  Cent pot=  -109.31400153 kcal/mol
H      0.08296354      1.37623493     -1.62909295       0.17053223
H     -0.48668373      0.92800743     -1.38979666       0.22401033
H      0.40372019     -2.30424236      3.01888961       0.19079515
3
200000  xi=   0.67646871  Mean pot=  -103.78283055  Cent pot=  -109.06854570 kcal/mol
H     -1.54678056     -0.37838827      0.94055383       0.17441078
H     -1.15857136     -0.47171625      1.60486721       0.17415158
H      2.70535192      0.85010452     -2.54542104       0.17924008
3
300000  xi=   0.68007375  Mean pot=  -107.29656654  Cent pot=  -109.49952322 kcal/mol
H     -1.84593995      0.10321190      0.20527253       0.22664733
H     -1.87344266     -0.44855310     -0.28734786       0.23102841
H      3.71938261      0.34534120      0.08207533       0.16658729
3
400000  xi=   0.68857897  Mean pot=  -104.32987788  Cent pot=  -108.13886313 kcal/mol
H      0.92932034      0.15421058      1.26669968       0.15295763
H      1.46730969     -0.09166565      1.61730422       0.22302127
H     -2.39663003     -0.06254493     -2.88400390       0.14917387
3
500000  xi=   0.68648512  Mean pot=  -106.50305022  Cent pot=  -109.47476777 kcal/mol
H      0.01319334      0.18493489     -1.83561532       0.13128941
H      0.48396438     -0.37543035     -1.78319106       0.16355899
H     -0.49715772      0.19049547      3.61880638       0.21215641
3
600000  xi=   0.68310783  Mean pot=  -107.27659039  Cent pot=  -109.29678973 kcal/mol
H     -0.22678061     -0.33297145      1.83493417       0.23108930
H      0.18439495     -0.88891189      1.63441942       0.17999932
H      0.04238565      1.22188334     -3.46935359       0.19232639
3
700000  xi=   0.68026038  Mean pot=  -107.48950329  Cent pot=  -109.29647359 kcal/mol
H      1.32765585     -0.48055619      0.81466614       0.20534535
H      1.72183539     -1.06835020      0.94667287       0.12477246
H     -3.04949125      1.54890639     -1.76133901       0.24692020
3
800000  xi=   0.68395368  Mean pot=  -104.92005841  Cent pot=  -109.49998462 kcal/mol
H     -2.12648975      0.48751951      0.06586311       0.22328905
H     -1.45151711      0.77600284      0.16137916       0.15658314
H      3.57800686     -1.26352234     -0.22724227       0.19566049
3
900000  xi=   0.67679890  Mean pot=  -106.82326132  Cent pot=  -109.19051436 kcal/mol
H      1.18351176      1.93663668      0.11175576       0.16082178
H      0.65018623      1.49149599     -0.05765039       0.25442073
H     -1.83369799     -3.42813267     -0.05410537       0.17350294
3
1000000  xi=   0.67431902  Mean pot=  -105.51761710  Cent pot=  -109.47673532 kcal/mol
H      1.49952281     -0.87247647      0.14841280       0.16651896
H      1.46305357     -1.60553361      0.13009418       0.25437386
H     -2.96257637      2.47801008     -0.27850698       0.13300096
3
1100000  xi=   0.67873455  Mean pot=  -107.24552279  Cent pot=  -108.50549876 kcal/mol
H      1.71065605     -0.32656163     -0.37526539       0.19353193
H      1.90739311      0.26399626     -0.68459160       0.17009420
H     -3.61804916      0.06256537      1.05985699       0.23582781
3
1200000  xi=   0.67220620  Mean pot=  -107.00317547  Cent pot=  -109.44370122 kcal/mol
H     -0.02984398      1.69511657     -1.58382049       0.14192764
H     -0.01441367      0.98852166     -1.32261996       0.17390175
H      0.04425765     -2.68363823      2.90644044       0.16513715
3
1300000  xi=   0.68236849  Mean pot=  -105.32202241  Cent pot=  -109.02184825 kcal/mol
H     -0.39794969      0.10006603      1.84324653       0.23255281
H      0.14447695      0.65306318      1.78348545       0.19179189
H      0.25347275     -0.75312922     -3.62673198       0.16944634
3
1400000  xi=   0.67574327  Mean pot=  -107.75554208  Cent pot=  -109.38983742 kcal/mol
H     -1.52574133      0.50404614     -0.55537532       0.16954683
H     -2.04002635      0.82381093     -0.15570546       0.15750708
H      3.56576769     -1.32785707      0.71108078       0.18981240
3
1500000  xi=   0.67383216  Mean pot=  -107.33536523  Cent pot=  -109.15383092 kcal/mol
H     -0.11524058      0.41759714      1.72805627       0.16768584
H     -0.78900702      0.30982436      1.93697739       0.17817840
H      0.90424760     -0.72742150     -3.66503366       0.20299671
3
1600000  xi=   0.68685326  Mean pot=  -105.06635022  Cent pot=  -109.48639569 kcal/mol
H     -1.61002446      0.34071423      1.42551191       0.18896555
H     -1.37306899      0.47018763      0.74114572       0.16574470
H      2.98309345     -0.81090186     -2.16665763       0.18906506
3
1700000  xi=   0.67740141  Mean pot=  -107.03943999  Cent pot=  -109.17325773 kcal/mol
H      0.20511365      1.13745181     -1.70659478       0.19432181
H     -0.42285818      1.06847102     -1.37311030       0.30061493
H      0.21774453     -2.20592283      3.07970507       0.21002602
3
1800000  xi=   0.68518071  Mean pot=  -106.15376874  Cent pot=  -109.10690120 kcal/mol
H      1.57868638      0.44390342      0.11537938       0.20493170
H      1.91486536      1.07957421     -0.16966672       0.16002822
H     -3.49355174     -1.52347763      0.05428734       0.23256146
3
1900000  xi=   0.67920738  Mean pot=  -106.56945026  Cent pot=  -109.49000698 kcal/mol
H      0.32180279     -0.82319507     -2.13525227       0.14297250
H      0.12970718     -0.69339591     -1.42527258       0.16965637
H     -0.45150997      1.51659098      3.56052484       0.18997528
3
2000000  xi=   0.68295977  Mean pot=  -107.24355059  Cent pot=  -109.38879051 kcal/mol
H     -1.73959414     -0.62808987     -1.00337980       0.18360337
H     -1.65340525     -0.45026869     -0.27123837       0.14884949
H      3.39299939      1.07835856      1.27461817       0.13229794
