3
100000  xi=   0.56952901  Mean pot=  -105.39677083  Cent pot=  -109.19536773 kcal/mol
H     -0.21228148      1.81573335     -2.11658889       0.23759287
H      0.01468837      1.57269406     -1.48321937       0.22028545
H      0.19759311     -3.38842741      3.59980826       0.19078572
3
200000  xi=   0.57368270  Mean pot=  -103.87781680  Cent pot=  -109.49465935 kcal/mol
H      0.54500505     -1.38473777     -2.36580690       0.15037249
H      0.17219986     -1.20960428     -1.75257539       0.15143397
H     -0.71720491      2.59434205      4.11838229       0.21174503
3
300000  xi=   0.57525892  Mean pot=  -104.96301613  Cent pot=  -109.49430279 kcal/mol
H      2.16787774     -0.90982374     -0.71320893       0.21349099
H      2.31458856     -0.59434281     -0.05486040       0.16687079
H     -4.48246629      1.50416655      0.76806933       0.19988865
3
400000  xi=   0.56959516  Mean pot=  -104.79574908  Cent pot=  -108.82195255 kcal/mol
H      0.21876899      1.67679905     -1.77029368       0.23845107
H      0.64296390      1.11035057     -2.10740888       0.15832309
H     -0.86173289     -2.78714962      3.87770256       0.18197543
3
500000  xi=   0.57277938  Mean pot=  -104.33058532  Cent pot=  -109.04328938 kcal/mol
H     -1.61429600      0.67143316     -1.68067048       0.20769039
H     -1.48291796      1.37919193     -1.39088595       0.24240126
H      3.09721396     -2.05062510      3.07155643       0.17421880
3
600000  xi=   0.57157574  Mean pot=  -106.27684394  Cent pot=  -108.97872418 kcal/mol
H     -0.75498688      1.07032013      2.53633047       0.17228628
H     -0.46314386      0.61182582      1.97902229       0.17367336
H      1.21813075     -1.68214595     -4.51535277       0.19792119
3
700000  xi=   0.57126395  Mean pot=  -107.24485520  Cent pot=  -109.49660230 kcal/mol
H     -2.09806243      0.25045120     -0.91232077       0.18968012
H     -2.59159994      0.07653082     -0.38936678       0.17337862
H      4.68966237     -0.32698202      1.30168755       0.18173098
3
800000  xi=   0.55833440  Mean pot=  -106.42739770  Cent pot=  -108.71984312 kcal/mol
H     -2.65176509     -0.80053760     -0.68293696       0.26493527
H     -2.02983890     -0.79345522     -0.36127189       0.14790891
H      4.68160400      1.59399283      1.04420885       0.16941133
3
900000  xi=   0.57149372  Mean pot=  -103.92640693  Cent pot=  -108.98931137 kcal/mol
H     -2.27033867      1.34576992     -0.33619216       0.15222004
H     -2.03557313      0.99345004      0.31658238       0.17602482
H      4.30591180     -2.33921996      0.01960979       0.13678166
3
1000000  xi=   0.57939776  Mean pot=  -106.26962080  Cent pot=  -108.80751375 kcal/mol
H     -1.14400818     -0.27370360      2.06474160       0.12235312
H     -1.36613461      0.47382765      1.98079647       0.19162260
H      2.51014279     -0.20012405     -4.04553808       0.24965738
3
1100000  xi=   0.57701677  Mean pot=  -106.78004403  Cent pot=  -107.61761778 kcal/mol
H     -1.65819666      1.51589207     -0.13848712       0.26098627
H     -1.42429265      2.14341119     -0.24940593       0.23296679
H      3.08248932     -3.65930326      0.38789305       0.18048177
3
1200000  xi=   0.57250478  Mean pot=  -105.65293828  Cent pot=  -109.40743307 kcal/mol
H      0.02186780      1.67002269     -1.30367303       0.17648198
H      0.05442016      2.05715690     -1.95299515       0.13780147
H     -0.07628796     -3.72717959      3.25666817       0.22082196
3
1300000  xi=   0.56308165  Mean pot=  -106.88028135  Cent pot=  -109.30755714 kcal/mol
H      1.49911698     -0.83264330     -1.96951311       0.18828291
H      1.48686990     -0.12303613     -1.84429458       0.20371678
H     -2.98598688      0.95567942      3.81380769       0.20797266
3
1400000  xi=   0.56485774  Mean pot=  -106.74896871  Cent pot=  -109.33413391 kcal/mol
H     -1.90585000     -1.54421069      0.39141043       0.23628833
H     -1.45215183     -1.97253027      0.02779846       0.16243466
H      3.35800184      3.51674096     -0.41920890       0.17958584
3
1500000  xi=   0.57434160  Mean pot=  -105.34471554  Cent pot=  -109.10014244 kcal/mol
H      1.92333914      1.58065128     -0.37917134       0.14518904
H      2.17811361      0.92667246     -0.05359575       0.24270673
H     -4.10145275     -2.50732374      0.43276710       0.19648017
3
1600000  xi=   0.57313436  Mean pot=  -106.24249389  Cent pot=  -109.46809345 kcal/mol
H     -0.30175434      2.28649146      0.28557662       0.19849024
H     -0.08109066      2.53928972     -0.36634083       0.18068948
H      0.38284500     -4.82578118      0.08076420       0.15517917
3
1700000  xi=   0.56878147  Mean pot=  -107.18142418  Cent pot=  -109.49725396 kcal/mol
H      0.64170395     -2.70039384      0.23776380       0.18180995
H      0.46248633     -2.13150372     -0.20060181       0.21326004
H     -1.10419029      4.83189756     -0.03716199       0.14511193
3
1800000  xi=   0.56456993  Mean pot=  -104.80165104  Cent pot=  -108.85765868 kcal/mol
H     -1.98576574     -0.61573965      1.92646311       0.25665126
H     -1.65557630     -0.40054091      1.34323790       0.21609373
H      3.64134205      1.01628056     -3.26970101       0.22870762
3
1900000  xi=   0.56395327  Mean pot=  -106.83884188  Cent pot=  -109.09308680 kcal/mol
H     -0.03934258      0.86322132      1.97561969       0.22030786
H      0.06758885      1.17777851      2.60464904       0.24765500
H     -0.02824627     -2.04099983     -4.58026874       0.17618449
3
2000000  xi=   0.56870210  Mean pot=  -105.80911749  Cent pot=  -109.48320019 kcal/mol
H      1.15629147     -0.27922974     -2.21361980       0.13340958
H      1.03461897      0.45326300     -2.12634782       0.15473103
H     -2.19091044     -0.17403327      4.33996762       0.19262834
