3
100000  xi=   0.18642881  Mean pot=  -106.96164782  Cent pot=  -109.44564577 kcal/mol
H      2.03666774      1.08620966      3.48947669       0.23619183
H      1.67734163      1.50617472      3.96719199       0.17413037
H     -3.71400938     -2.59238438     -7.45666869       0.19078789
3
200000  xi=   0.17811537  Mean pot=  -106.53602114  Cent pot=  -107.83846855 kcal/mol
H     -2.35416407     -3.49183355     -0.34873070       0.17356114
H     -2.26004812     -3.99851218      0.09855757       0.16480837
H      4.61421219      7.49034573      0.25017312       0.15081296
3
300000  xi=   0.19714881  Mean pot=  -104.35687245  Cent pot=  -108.65791259 kcal/mol
H      1.14344823      0.29151346      3.81047725       0.16527921
H      1.61804375      0.65254236      4.32707530       0.20621543
H     -2.76149198     -0.94405583     -8.13755255       0.29927390
3
400000  xi=   0.19112636  Mean pot=  -107.78090154  Cent pot=  -109.49135059 kcal/mol
H     -1.89311116      4.06524877     -0.94252903       0.19957823
H     -2.19075792      3.38964282     -0.83837787       0.14703724
H      4.08386908     -7.45489159      1.78090691       0.17002952
3
500000  xi=   0.20243558  Mean pot=  -104.42306419  Cent pot=  -109.00236121 kcal/mol
H      3.01184910      1.87808659      2.99445573       0.17792898
H      2.41791873      1.41931005      2.79109351       0.15306457
H     -5.42976783     -3.29739663     -5.78554924       0.20500954
3
600000  xi=   0.19210795  Mean pot=  -105.09473516  Cent pot=  -105.84476702 kcal/mol
H     -2.97242930     -3.41852347      0.73254521       0.24254495
H     -2.70380038     -2.89198668      1.01783955       0.15602621
H      5.67622969      6.31051015     -1.75038476       0.19836908
3
700000  xi=   0.19297477  Mean pot=  -106.59141865  Cent pot=  -109.45632008 kcal/mol
H      4.09064319     -1.88295593      1.08079996       0.14567412
H      3.66512219     -1.66637991      0.50016629       0.14515006
H     -7.75576538      3.54933583     -1.58096626       0.24136648
3
800000  xi=   0.19457102  Mean pot=  -107.64713617  Cent pot=  -109.49064896 kcal/mol
H     -0.47096870     -4.01713074     -1.84260416       0.18136286
H     -0.30283705     -3.49387701     -2.34672454       0.17598564
H      0.77380575      7.51100775      4.18932871       0.14340215
3
900000  xi=   0.19739501  Mean pot=  -106.97763978  Cent pot=  -109.49692164 kcal/mol
H      1.34476151     -3.29068026     -2.61208995       0.22551870
H      0.61434964     -3.19753241     -2.68778034       0.21309701
H     -1.95911115      6.48821267      5.29987029       0.20404191
3
1000000  xi=   0.19287336  Mean pot=  -106.90907318  Cent pot=  -109.49608555 kcal/mol
H     -2.34017548      3.35903157     -0.93462809       0.17647144
H     -2.93389726      3.35546086     -0.48687397       0.20055292
H      5.27407274     -6.71449244      1.42150206       0.19586194
3
1100000  xi=   0.18982021  Mean pot=  -107.20986140  Cent pot=  -109.49772504 kcal/mol
H      2.32753660      0.99176155      3.96889386       0.15905344
H      1.85178503      1.03791336      3.40147528       0.18569754
H     -4.17932164     -2.02967491     -7.37036914       0.23198080
3
1200000  xi=   0.19148638  Mean pot=  -107.90303448  Cent pot=  -109.49765083 kcal/mol
H      4.17056781     -1.52763972      0.94258858       0.16809682
H      3.91153418     -1.38735243      0.26142086       0.19163768
H     -8.08210199      2.91499215     -1.20400944       0.20964122
3
1300000  xi=   0.18638265  Mean pot=  -106.27778966  Cent pot=  -108.14152035 kcal/mol
H      2.86766222      3.09413489      0.62171126       0.14548219
H      3.23973854      3.07828051      0.04353279       0.17506544
H     -6.10740075     -6.17241540     -0.66524405       0.24186483
3
1400000  xi=   0.19463976  Mean pot=  -107.25240102  Cent pot=  -108.01302452 kcal/mol
H      4.03089184     -0.50388402      1.63479583       0.20541078
H      3.85431829     -1.13548698      1.43564001       0.17951398
H     -7.88521013      1.63937100     -3.07043584       0.24047437
3
1500000  xi=   0.19386729  Mean pot=  -107.90487643  Cent pot=  -109.35037462 kcal/mol
H      0.61523606      0.29647617     -4.19152917       0.17167035
H      0.92566008     -0.38793182     -4.31053262       0.14508886
H     -1.54089614      0.09145565      8.50206179       0.18601719
3
1600000  xi=   0.19037914  Mean pot=  -105.75423079  Cent pot=  -109.37346771 kcal/mol
H     -2.10281822     -2.95049903      2.43114122       0.12548958
H     -2.60849337     -2.87392390      1.91780872       0.12182705
H      4.71131158      5.82442294     -4.34894994       0.21652895
3
1700000  xi=   0.19517047  Mean pot=  -105.26148226  Cent pot=  -109.32618357 kcal/mol
H     -0.76691210      3.63544671     -2.81895360       0.21026177
H     -0.39061949      3.28589447     -2.25546086       0.15801601
H      1.15753160     -6.92134118      5.07441446       0.20264428
3
1800000  xi=   0.18484172  Mean pot=  -106.58299753  Cent pot=  -108.96578395 kcal/mol
H      0.84346117      3.72066624      2.06515044       0.19059813
H      1.51392915      3.52383525      2.17359797       0.12963609
H     -2.35739033     -7.24450149     -4.23874842       0.19673406
3
1900000  xi=   0.19073277  Mean pot=  -106.22927339  Cent pot=  -109.02326635 kcal/mol
H     -1.07483935      0.85824996      3.72802397       0.13464601
H     -1.40894295      1.06095422      4.39931742       0.15451670
H      2.48378229     -1.91920419     -8.12734139       0.20412833
3
2000000  xi=   0.18364040  Mean pot=  -105.98082196  Cent pot=  -108.28352994 kcal/mol
H     -0.09972330     -1.52544674     -4.09288776       0.14724948
H     -0.61793050     -1.08240408     -4.20212634       0.19374136
H      0.71765381      2.60785083      8.29501410       0.22319796
