96
100000  xi=   0.80612075  Mean pot=  -106.07185311  Cent pot=  -109.34303751 kcal/mol
H      0.03869285      0.17747001     -1.32088388      5.61646842e+00   -9.03265955e+00   -5.51000047e+00      -37.20665139     -1.57312593     12.92598968  
H      0.03721806      0.16913529     -1.40554238     -1.37304464e+01   -6.56445137e+00    1.16894978e+01       45.10460433      7.36003773    -29.53954809  
H      0.07073220      0.18702252     -1.36369129     -9.26614154e+00   -3.86780454e+00   -3.68956705e+00        2.44734684      0.49157278     -1.69245813  
H      0.03099303      0.18291453     -1.31259132     -8.59154969e+00    6.55306411e+00   -7.12868822e+00       -6.77120063     -1.14571015      3.68142181  
H      0.06591344      0.21635609     -1.29396608      4.83950087e+00    9.10716832e+00    6.48716326e+00      -12.30246303     -4.03762330      6.26802790  
H     -0.00726144      0.43447542     -1.36541596      7.29756650e-01    1.46894748e+01    1.41492020e+01       25.95845845     16.16662736    -17.88816593  
H     -0.05909857      0.54877675     -1.40446827      1.25554562e+00   -4.08277943e+00   -5.85983279e+00      -45.55907761    -38.04857174     31.20840786  
H     -0.12658240      0.53554971     -1.33445351     -1.49527929e+01   -3.36732641e+00   -2.02339557e+00      -93.01323274   -109.49937254     56.75536687  
H     -0.06560724      0.36990282     -1.30751849     -6.18134962e+00    1.02374822e+01   -5.30736313e+00     -149.93307835    -67.98213065     64.30092623  
H     -0.16275008      0.41715384     -1.26244625      6.38356091e+00   -3.98782526e+00   -1.21495023e+01      -45.38282856    -16.70404327     15.30688377  
H     -0.13097047      0.40403137     -1.29275317     -3.04554838e+00    2.02892457e+00    1.11985994e+00       20.07413673      8.33636930     -5.77384838  
H     -0.20361354      0.47788173     -1.31860676      9.29152754e+00    8.00894757e-01    1.43910661e+01       17.77375638      8.90811120     -6.85809405  
H     -0.29774962      0.40295036     -1.26201357     -4.33288817e+00   -5.26109813e+00   -1.15655644e+01      -15.52340468     -6.77277448      6.79614357  
H     -0.28146259      0.34065222     -1.43410827     -9.38530717e+00   -2.33011400e+00   -1.40392356e+01       67.21553560     16.53961162    -43.54995289  
H     -0.26924820      0.37165265     -1.32883664     -8.75462728e+00    1.07164853e+01    2.02842452e+00       75.71723573     23.93735285    -34.17650641  
H     -0.27046751      0.27498888     -1.30107631     -9.58682769e-01    6.22988433e+00    8.27249302e+00       20.38178739      3.91508697    -12.57431776  
H     -0.29739770      0.38205719     -1.35729607     -1.04590013e+01    1.59772183e+00    1.54626180e+00      -23.07682859     -8.05045190     20.50417033  
H     -0.33828009      0.27138782     -1.23152963      8.90686364e-01   -5.43459208e+00    1.41503624e-01     -210.06643863     -4.29607246    110.72069890  
H     -0.26936194      0.26966662     -1.20732860     -9.91144102e-02   -1.75888646e+01    1.17703455e+01      -76.38407267    -22.37128869     42.84263498  
H     -0.28348002      0.30638016     -1.14814888     -1.57341168e+01   -1.12244883e+00   -1.17435621e+00      -41.05287026    -21.11194351     13.95961401  
H     -0.19729299      0.31871416     -1.11823587     -3.22604782e+00   -4.99450149e+00    1.63862582e+00       63.74468615     28.38308435    -14.22366595  
H     -0.15738900      0.29713823     -1.17076463     -5.35558854e-01   -3.84316291e-01    5.87485361e+00       74.23878927     35.19111156    -25.52298234  
H     -0.08931348      0.36567187     -1.11342863      1.06662369e+01    4.23098214e-02   -8.37964499e+00       61.07220350     36.54614968    -12.52600232  
H     -0.04483388      0.38815166     -1.12216778      1.13909913e+01    6.91818629e+00   -3.17486270e+00       62.18491283     34.16644362    -20.31493484  
H      0.01580798      0.35857397     -1.14418715      3.29518409e+00    4.09697263e+00    4.25919734e+00       53.82123221     28.19889976    -21.57418532  
H      0.02457010      0.33475904     -1.23503699      2.26443479e+01   -2.62978106e+00    5.04177970e+00       -2.72695104     -1.27602839      0.83071463  
H     -0.03808916      0.46780797     -1.14638640      1.32465768e+00   -6.80962415e+00    5.36186905e+00      -49.23568686    -26.90044436      2.38352620  
H     -0.05224654      0.33456380     -1.21112825      6.35044672e+00   -8.02381399e+00    2.58252034e+00     -147.63143121    -54.29226336     53.84587540  
H     -0.02270188      0.19927665     -1.21339191      1.37995782e+00    1.70054046e+01    9.99790005e+00      -87.57812451     -2.32685111     17.43668883  
H      0.03335594      0.04756195     -1.19995419     -2.69604376e+00    8.00599311e+00   -2.36637000e+00      -36.59630160      7.34656425      9.40093161  
H     -0.04555157      0.02856214     -1.17874939      5.85958972e+00    5.84902894e+00    8.27373886e-01      -35.00076182      9.83826050      8.95233818  
H      0.01954128      0.05077949     -1.27327205      9.50027369e+00   -4.96089798e+00   -1.36673820e+00       33.63530977     -4.73727300     -7.68032055  
H     -0.62205191      0.14947830     -1.09100800      6.47108911e-01    8.01429002e+00   -3.90892535e+00       37.19575605      1.57889109    -12.95917584  
H     -0.64873913      0.05721891     -0.95638871     -6.40707677e+00    2.22040719e-01   -4.97936939e+00      -45.11657995     -7.35549046     29.51190830  
H     -0.53536363      0.06582963     -0.94721572     -4.91811702e+00   -5.32801159e-01   -2.91141145e+00       -2.45741431     -0.48670374      1.66580926  
H     -0.60515110      0.07509613     -0.96588016      1.08292236e+01   -4.08434947e+00   -5.53336917e+00        6.76539471      1.14916656     -3.69907970  
H     -0.55396760      0.01275829     -0.97752347     -6.65602259e+00   -3.16984838e+00    1.18861721e+01       12.29538743      4.04169114     -6.28984467  
H     -0.58736988      0.07318137     -0.96563287     -1.92407584e+00   -5.03475152e+00    6.70281371e-01      -25.96702083    -16.16363697     17.87055392  
H     -0.51857811      0.16493304     -1.08945868      5.69890096e+00   -3.39045322e+00    1.01515829e+01       45.54856316     38.05580626    -31.23920056  
H     -0.49945599      0.09649436     -1.10677102      1.92878401e+01   -8.49176911e+00   -5.04147123e+00       93.00055827    109.51092273    -56.79387459  
H     -0.58108586      0.13612745     -1.08631120     -7.01224734e+00   -1.33996822e+01   -3.49059034e+00      149.91791421     67.99407570    -64.34718838  
H     -0.78002467      0.18987309     -1.05403346     -6.53889837e+00    1.17849153e+00    5.97724194e+00       45.37189576     16.71136042    -15.33358392  
H     -0.81959812      0.11811192     -1.09482331      4.65017458e+00   -4.14076500e+00    5.10791859e+00      -20.07704149     -8.33441314      5.76651283  
H     -0.85388955      0.15205172     -1.06790475     -1.22512545e+01    5.26216493e+00    2.57547278e+00      -17.77940624     -8.90508594      6.84575577  
H     -0.91086625      0.13529784     -0.99316744      9.40095672e+00   -9.98517412e-01   -1.04222295e+01       15.51623422      6.77673740     -6.81262456  
H     -1.02304203      0.15812454     -0.95343475     -1.91648512e+00   -4.87492742e+00   -4.62516651e+00      -67.21890831    -16.54030449     43.55159245  
H     -1.07549993      0.11676368     -0.96492051     -1.04775353e+01    1.66560408e+01    8.66475294e-01      -75.72068971    -23.93626994     34.17097402  
H     -0.92077804      0.15013398     -0.90013707      6.40270398e+00   -5.70431184e+00    1.35413080e+01      -20.39209618     -3.91074490     12.55374233  
H     -0.80878825      0.20355708     -0.90252002      3.63358777e+00   -1.99805766e+01   -2.99730580e+00       23.06534028      8.05601865    -20.53219752  
H     -0.85115356      0.26088869     -0.96111854     -9.12748141e+00    6.19485880e+00    5.11344290e+00      210.04852240      4.30218910   -110.76669982  
H     -0.82620804      0.10653612     -0.89479496     -5.72613392e+00    1.35343121e+00   -9.59941838e+00       76.37040201     22.37617385    -42.87886454  
H     -0.87261359      0.00334022     -0.94757702      9.86552913e-01   -5.35404023e+00    2.66145359e+00       41.04015824     21.11546996    -13.98984433  
H     -0.97482738     -0.02744553     -0.94490406      2.05898427e+00   -1.63221049e+00   -6.47031684e+00      -63.74636938    -28.38125661     14.21505026  
H     -0.95026566     -0.07870149     -0.89819417      3.77711114e-01    5.21387392e+00    4.77570305e+00      -74.23950466    -35.19086127     25.52091528  
H     -0.82590587     -0.07509259     -0.96240951     -1.70816116e+00    5.11219265e+00   -6.29240795e+00      -61.07046843    -36.54566539     12.52731335  
H     -0.78293199     -0.01743279     -0.88085816     -5.29130708e+00    1.25489027e+01    4.87668039e+00      -62.17724599    -34.16918894     20.33847350  
H     -0.69414062     -0.01346616     -0.85933673     -2.77862188e+00    3.15885895e+00   -8.38238173e+00      -53.81609222    -28.20248335     21.59542873  
H     -0.61889330      0.03300106     -1.03667929     -8.62019385e+00   -3.06660253e+00   -3.33715814e+00        2.72130719      1.27920974     -0.84960420  
H     -0.63900200      0.13944385     -1.11715950      3.33493567e+00   -4.95328390e+00   -1.68502641e+01       49.22556301     26.90565712     -2.41296306  
H     -0.59657351      0.13435005     -1.01245783     -5.27245709e+00   -1.06112078e+01    5.58983431e+00      147.61840558     54.30032996    -53.89214340  
H     -0.66957884      0.18207509     -1.08450216     -2.06412282e+00    6.36763582e+00    8.38284471e+00       87.56473403      2.33228274    -17.47218061  
H     -0.63304831      0.18131801     -1.02852839      8.27689788e+00    1.02398393e+01   -1.23375295e+00       36.58695954     -7.34195486     -9.42820371  
H     -0.70167053      0.21297138     -1.01062661      9.53138509e+00   -9.12271943e+00   -2.49215416e+00       34.98994682     -9.83328209     -8.98361513  
H     -0.74429468      0.15840417     -1.09930678     -7.21090722e-01    4.86708155e+00    5.97244188e-01      -33.64429577      4.74152509      7.65204963  
H      0.92341578     -0.48078189      2.50284271      1.76790918e+01    7.44233548e+00   -1.30228470e+00        0.01089534     -0.00576516      0.03318616  
H      0.96911533     -0.49640414      2.44638357     -3.00868670e+00   -9.46010518e+00   -4.38714102e+00        0.01197561     -0.00454727      0.02763979  
H      0.95940910     -0.52408319      2.36070085      5.22050863e+00    2.11109443e+01    3.02670220e+00        0.01006747     -0.00486903      0.02664887  
H      0.77323167     -0.53480160      2.23831236      3.42660482e+00    1.05335299e+01    1.22303757e+00        0.00580593     -0.00345641      0.01765789  
H      0.84806276     -0.52358454      2.27250866      4.54260580e+00   -8.17125747e+00    8.48789875e+00        0.00707560     -0.00406784      0.02181677  
H      0.92301221     -0.48228821      2.22010439      9.10655586e-01   -8.62478064e+00    4.72568559e+00        0.00856238     -0.00299039      0.01761202  
H      0.98069646     -0.38873034      2.16751888     -2.59776118e+00    7.33255246e+00    6.73504727e+00        0.01051445     -0.00723452      0.03079270  
H      0.98583053     -0.58377076      2.22973216      2.48766462e+00   -5.45842296e-01   -9.54121740e-01        0.01267446     -0.01155020      0.03850773  
H      0.93112767     -0.57198101      2.17271006     -1.04766917e+01   -4.42924043e-01    1.40801456e+00        0.01516414     -0.01194505      0.04626215  
H      0.87221824     -0.58100982      2.08365130     -1.45256596e+01   -7.18590838e+00    1.88811205e+00        0.01093280     -0.00731715      0.02670014  
H      0.79135672     -0.59895678      2.02309250     -5.05297199e+00   -3.33300686e+00   -2.61463638e+00        0.00290476     -0.00195617      0.00733556  
H      0.86612762     -0.50207138      2.02676945     -9.58260148e+00    4.38606104e-01    8.09471291e+00        0.00564986     -0.00302527      0.01233828  
H      0.81618576     -0.48760020      2.05893278      6.69720263e+00   -5.10096425e+00    8.87491027e+00        0.00717046     -0.00396291      0.01648099  
H      0.76739310     -0.44054080      2.02412381      1.62482291e+00    1.45365707e-01    7.26040017e+00        0.00337272      0.00069286     -0.00163956  
H      0.85101614     -0.47442033      2.07903533     -7.11527922e+00   -9.09568264e+00    9.47872869e+00        0.00345398     -0.00108291      0.00553239  
H      0.90112098     -0.49537260      2.21695647     -4.84543299e+00   -5.86778443e-01   -8.49214666e+00        0.01030879     -0.00434208      0.02057543  
H      0.83139697     -0.39176124      2.30245328      7.13328055e+00    3.77160341e+00   -1.89659246e+00        0.01148831     -0.00556675      0.02802719  
H      0.87399022     -0.20678170      2.43092772      3.00493637e+00    1.80697172e+00    5.04182986e-01        0.01791624     -0.00611664      0.04600093  
H      0.84671146     -0.25667787      2.38019555      2.30484689e-01    7.77112977e+00   -4.57195060e+00        0.01367066     -0.00488516      0.03622955  
H      0.83602164     -0.24214573      2.33114942      6.98138977e+00    1.62308725e+01    4.56394492e+00        0.01271203     -0.00352645      0.03023032  
H      0.86274247     -0.25046884      2.27763691      1.44200339e+01   -4.13252533e+00   -9.31623876e-01        0.00168323     -0.00182774      0.00861569  
H      0.77650967     -0.22816056      2.30683649      6.77955591e+00    6.69157932e+00   -6.38349971e+00        0.00071540     -0.00025030      0.00206707  
H      0.80243312     -0.28854776      2.27782164      2.02372559e+00   -6.06558998e+00    3.73614437e+00       -0.00173506     -0.00048429     -0.00131103  
H      0.72564169     -0.16027291      2.26345858     -4.83319010e+00    1.11406340e+01    2.13096520e+00       -0.00766684      0.00274532     -0.02353867  
H      0.74268560     -0.25864222      2.27001369      7.68390096e+00    6.34921813e+00   -8.28037203e+00       -0.00513998      0.00358359     -0.02124341  
H      0.71132929     -0.39759673      2.28553224     -6.18126272e+00    7.69262227e+00    2.03734905e+00        0.00564385     -0.00318134      0.01888957  
H      0.75943395     -0.34248681      2.28575952     -9.99271721e+00   -8.50482389e+00   -1.69151122e+00        0.01012385     -0.00521276      0.02943686  
H      0.76074180     -0.31472840      2.25531009     -7.64025350e+00   -2.85297573e+00   -8.86976368e+00        0.01302562     -0.00806660      0.04626800  
H      0.84794445     -0.33685915      2.30066046      9.63004548e+00    9.27263069e+00   -1.37657268e+00        0.01339048     -0.00543163      0.03549178  
H      0.83031109     -0.45460871      2.30901122      2.43685844e+01    2.58893074e+00   -4.06982847e+00        0.00934206     -0.00460940      0.02727211  
H      0.82305326     -0.43294620      2.41627374      4.12253430e+00   -1.42416236e+00   -1.80669216e+01        0.01081500     -0.00497841      0.03127695  
H      0.90901620     -0.45810589      2.41854757      9.12394548e+00    1.04846146e+01    2.25150274e+00        0.00898600     -0.00425209      0.02827093  
