96
100000  xi=   0.19664365  Mean pot=  -105.41874531  Cent pot=  -109.42100433 kcal/mol
H      1.86099978      0.51414314      3.59643255      6.87086454e+00    4.88629053e+00   -1.45476441e+01      -77.17624127     72.97006495    232.06217387  
H      1.84906181      0.40149262      3.56781775     -1.46294325e+01   -2.14808085e+00   -1.22874409e+00       -6.32516882     10.27689987     22.38722361  
H      1.91864976      0.36171075      3.58425232     -1.32539314e+01   -9.72766871e+00    1.47821526e+00        5.58115750    -12.95763108    -21.23989066  
H      1.98870326      0.38410021      3.65190111      4.85396802e-01   -4.17294637e+00   -4.96089965e+00       12.72221737    -10.75575532    -16.50665207  
H      2.00058881      0.43852349      3.66427819      3.12012828e+00    2.83821305e+00    1.86965430e+01      -38.77588590     23.51806008     57.13608770  
H      2.00372856      0.62422387      3.60506996      8.00191887e-02    1.74533636e+00    1.01917578e+01        9.14131992     -2.40625862    -11.38539944  
H      2.05040919      0.72010587      3.50089956     -4.89087971e+00   -9.80589721e+00    9.43449496e-01       40.42799477    -10.21220285    -46.68375732  
H      2.05235207      0.67768537      3.56975887      1.60694396e+00   -1.64543375e+00    4.45701389e+00       37.78668925     -8.92136935    -34.44076739  
H      1.95235448      0.67929273      3.60094573     -1.76736409e+00    1.65837759e+00   -4.99593082e+00      -41.54646192      1.19248708     52.62726123  
H      1.77685315      0.80591781      3.60544896      5.84754104e+00   -1.89856100e+00   -2.08488026e+00      -12.11941333     -4.66220662     19.92473676  
H      1.78377317      0.82396630      3.64077417      4.24164986e+00   -3.68567240e-01   -2.44533174e-01      -58.41038300    -39.56728502     69.26766249  
H      1.70009679      0.85881122      3.65215464      3.80222830e+00    5.20437296e+00    1.90591820e+00     -120.34631516    -82.58211617    161.22777304  
H      1.69831206      0.70685661      3.72627052     -5.38351742e+00    8.97682680e-01   -6.98833436e+00      -98.61173153     -2.35104081     87.39722517  
H      1.69268876      0.72458910      3.56040368      2.65728912e+00    4.51303345e+00   -7.18094090e+00       39.24687001      6.06770823    -43.55508614  
H      1.64038800      0.78271204      3.58231916     -7.13054100e+00    1.43325404e+01   -3.21690710e+00       38.67506241     16.67599055    -52.39210897  
H      1.72382698      0.64211530      3.61628129      3.62883214e+00    1.62679408e+00    1.50914684e+01       39.82470300     -0.41167284    -54.46100412  
H      1.68103571      0.69490004      3.61843719     -9.75086509e+00   -1.31759858e+01   -5.63022263e+00      -10.62526487      1.90834519     19.90705023  
H      1.64763658      0.62730321      3.70790968      2.37888321e+00   -3.15677773e+00    8.48789562e+00      -63.47199721     25.61820474     93.19383289  
H      1.75335008      0.56218683      3.67247423     -2.05921751e+00   -6.70618863e+00   -1.62036286e+00       32.36981494     -8.02464720    -46.76414348  
H      1.62394520      0.45389288      3.74084954     -3.39946621e+00   -5.62191207e+00    1.52836299e+00      -31.98383442     31.37697038     64.49237589  
H      1.64409258      0.51595644      3.70168508     -6.48563880e+00    6.33344844e+00    1.16624762e+01        1.79583008     -0.67984594     -3.60832790  
H      1.61735856      0.47677107      3.68912900      2.39947013e+00    8.09826186e+00    3.81127139e+00       -5.07180401      3.13052043     16.35149800  
H      1.81087029      0.52682868      3.72680855      5.11877814e+00    4.19691292e+00   -7.72906311e+00       -6.86000119      1.72899606     10.09215423  
H      1.91224491      0.47373049      3.72970995      5.53892665e+00    1.16713384e+01    8.13546787e+00       45.77548185    -25.39277968    -58.31549630  
H      2.00977088      0.53788822      3.71106213      4.58473968e-01    1.06224647e+01   -2.68146486e+00       52.07278085    -12.40152031    -64.31816299  
H      2.05818481      0.59056329      3.60381056      2.03808801e+01   -1.75962972e+00    5.64797929e+00       47.38987608     -4.26212215    -52.86900485  
H      2.08323310      0.76210252      3.59288105      5.01901460e-01   -4.61722244e+00   -3.72467952e+00       71.01653790      5.15494298    -67.41530032  
H      2.02078783      0.60598807      3.62436494      8.29550360e+00   -5.55836299e+00   -3.88428405e+00       45.57574920     -9.96205628    -53.26751223  
H      2.04385443      0.50058491      3.69910649     -2.89787478e+00    1.14567952e+01    6.61783220e+00       38.37068731    -14.52231046    -25.41321800  
H      2.04897918      0.41433004      3.72205529      2.86989856e+00    1.52463011e+01   -2.90949347e+00       16.47378160     -7.72573658    -13.18160852  
H      1.94720061      0.47210987      3.74339336      4.58150260e+00   -5.56415563e+00   -8.18417572e+00      -30.23609997      9.63257215     26.66889945  
H      1.91250129      0.44841144      3.67386535      1.36242471e+01   -4.06340131e+00    4.08795234e+00     -120.42723892     51.15325532    116.80057252  
H      1.68783207      0.67787305      4.11713263      4.80487251e-01   -4.82200372e+00    6.60365354e+00       77.17624341    -72.97006413   -232.06216899  
H      1.67157799      0.68986166      4.19600153     -4.45419312e+00   -3.17712689e+00    9.32871294e+00        6.32517089    -10.27689908    -22.38721880  
H      1.74880689      0.75603071      4.23061379      1.74913941e-01    6.38570004e+00   -6.58512773e+00       -5.58115557     12.95763181     21.23989511  
H      1.56942430      0.73857162      4.19590167      2.80967257e+00    7.66430428e+00   -6.25650800e+00      -12.72221563     10.75575598     16.50665604  
H      1.64340188      0.65516183      4.19059144     -3.84384972e+00    4.11950430e+00    1.16403957e+00       38.77588768    -23.51805941    -57.13608363  
H      1.53387057      0.74790406      4.19027238     -2.01232596e-01    8.95918606e+00    6.10490392e+00       -9.14131817      2.40625932     11.38540355  
H      1.50398920      0.85813281      4.13187174      1.29110520e+01    3.32206594e+00    4.80819894e+00      -40.42799299     10.21220358     46.68376153  
H      1.45371398      0.81902276      4.11538903      3.82861033e+00   -9.15602873e+00   -1.00074159e+01      -37.78668747      8.92137015     34.44077163  
H      1.53321190      0.69132316      4.13187721     -1.03848041e+01   -3.83054590e+00   -2.35969350e+00       41.54646363     -1.19248635    -52.62725716  
H      1.41234044      0.66569373      4.20472041     -4.89849825e+00    1.43731106e-01   -2.56364095e+00       12.11941493      4.66220734    -19.92473286  
H      1.39787014      0.56255499      4.09840855     -1.58900777e+00   -7.42736829e-01    7.92956710e+00       58.41038457     39.56728571    -69.26765871  
H      1.37444579      0.63534822      4.08842877     -5.66738570e+00    1.89516738e+00    1.65531901e+01      120.34631674     82.58211687   -161.22776913  
H      1.22518086      0.69557650      4.14559540      1.15233420e+01   -6.12103720e+00   -1.35256244e+01       98.61173309      2.35104147    -87.39722127  
H      1.13506872      0.63837903      4.17923496     -1.28913817e+01   -1.07148769e+01   -9.99779685e+00      -39.24686841     -6.06770756     43.55509012  
H      1.14694238      0.56994717      4.25077726     -1.10051755e+01    1.40832413e+01    7.60746397e+00      -38.67506080    -16.67598985     52.39211306  
H      1.21719592      0.64735241      4.30910850      2.86462430e+00   -1.10940227e-01    8.17840778e+00      -39.82470129      0.41167357     54.46100838  
H      1.34487389      0.75527619      4.24825573      4.03016000e+00   -4.13650712e+00    5.65991033e+00       10.62526669     -1.90834444    -19.90704581  
H      1.29510823      0.76958868      4.22551537     -9.55989721e+00    4.90750427e+00   -1.79407313e+00       63.47199917    -25.61820401    -93.19382810  
H      1.28330202      0.67871422      4.35154505     -2.68236554e+00   -8.48808659e+00    5.28672314e+00      -32.36981307      8.02464787     46.76414799  
H      1.35199035      0.72068763      4.28922073     -1.02753775e+01    1.71559267e-01    1.39379776e+00       31.98383624    -31.37696975    -64.49237145  
H      1.31605464      0.64014164      4.36080646      6.39042569e+00   -1.19373463e+01   -1.50087048e+01       -1.79582832      0.67984656      3.60833224  
H      1.40697348      0.60662912      4.36741032     -1.46501004e+00   -2.22037828e+00    8.28968776e+00        5.07180581     -3.13051983    -16.35149367  
H      1.40598297      0.62887652      4.32246204      4.89857555e+00    1.95589388e+00   -5.47076012e+00        6.86000293     -1.72899546    -10.09215009  
H      1.39210024      0.76226748      4.39234627      1.65373271e+00    8.86536055e+00   -4.96079745e+00      -45.77548016     25.39278022     58.31550025  
H      1.44386836      0.67266212      4.41004173      1.12936716e+00   -2.38508852e+00    8.31408476e-03      -52.07277917     12.40152087     64.31816687  
H      1.47966466      0.64259389      4.24921816     -5.26419711e+00   -2.86522194e+00   -2.46098714e+00      -47.38987429      4.26212279     52.86900888  
H      1.37158464      0.71044543      4.26844196      5.23096707e+00   -6.14101848e+00   -6.33521640e+00      -71.01653612     -5.15494230     67.41530440  
H      1.46248614      0.72802299      4.27689056     -6.13386730e+00   -1.20347455e+01    1.35452218e+01      -45.57574744      9.96205691     53.26751625  
H      1.39591607      0.74581279      4.12824138      3.28666980e+00    1.29611358e+01    1.31851334e+01      -38.37068548     14.52231113     25.41322228  
H      1.48334865      0.67959476      4.17464851      3.79243718e+00    4.02260344e+00    7.65870150e-01      -16.47377980      7.72573723     13.18161267  
H      1.43784574      0.63437938      4.19265541      1.18929913e+01    3.37094411e+00    7.96582124e+00       30.23610187     -9.63257145    -26.66889504  
H      1.49474387      0.62586010      4.07904200     -3.77923108e+00    4.96833765e+00   -3.43156302e+00      120.42724093    -51.15325456   -116.80056783  
H     -3.20873356     -1.34572790     -7.62264766      1.65877307e+01    6.34916148e+00   -2.77434453e+00       -0.00000214     -0.00000082     -0.00000488  
H     -3.16309966     -1.36151253     -7.67929608     -4.05791394e+00   -1.04679610e+01   -5.78308467e+00       -0.00000207     -0.00000078     -0.00000480  
H     -3.17263055     -1.38891426     -7.76515656      4.11108752e+00    2.00472812e+01    1.53991002e+00       -0.00000193     -0.00000073     -0.00000445  
H     -3.35908038     -1.39945131     -7.88789245      2.37148996e+00    9.50989749e+00   -2.27604931e-01       -0.00000174     -0.00000065     -0.00000397  
H     -3.28398659     -1.38823278     -7.85388171      3.45019295e+00   -9.18498399e+00    7.00334331e+00       -0.00000178     -0.00000067     -0.00000407  
H     -3.20918434     -1.34664227     -7.90630435     -1.65375070e-01   -9.68468397e+00    3.25002385e+00       -0.00000175     -0.00000071     -0.00000411  
H     -3.15143048     -1.25337664     -7.95911896     -3.65901041e+00    6.35328280e+00    5.26993531e+00       -0.00000178     -0.00000073     -0.00000421  
H     -3.14622154     -1.44835667     -7.89672317      1.38263829e+00   -1.61021962e+00   -2.46143305e+00       -0.00000178     -0.00000079     -0.00000424  
H     -3.20116702     -1.43657918     -7.95386513     -1.15150817e+01   -1.43187209e+00   -4.09967048e-02       -0.00000172     -0.00000073     -0.00000407  
H     -3.25974391     -1.44565170     -8.04304364     -1.56305738e+01   -8.23546991e+00    3.68331394e-01       -0.00000160     -0.00000072     -0.00000390  
H     -3.34083025     -1.46322699     -8.10366785     -6.10313861e+00   -4.34284559e+00   -4.07179237e+00       -0.00000156     -0.00000068     -0.00000378  
H     -3.26596568     -1.36641935     -8.10027769     -1.06730605e+01   -5.87347580e-01    6.59801975e+00       -0.00000158     -0.00000070     -0.00000392  
H     -3.31586874     -1.35169006     -8.06819246      5.62076179e+00   -6.14542861e+00    7.40783325e+00       -0.00000156     -0.00000067     -0.00000390  
H     -3.36491163     -1.30476826     -8.10297540      5.60803274e-01   -8.54717545e-01    5.76762115e+00       -0.00000160     -0.00000066     -0.00000398  
H     -3.28104573     -1.33869826     -8.04787703     -8.21316018e+00   -1.01359145e+01    7.98814474e+00       -0.00000161     -0.00000070     -0.00000409  
H     -3.23113248     -1.35962309     -7.90963139     -5.89616216e+00   -1.58520290e+00   -9.94954341e+00       -0.00000171     -0.00000072     -0.00000426  
H     -3.30074015     -1.25644507     -7.82402242      6.03215876e+00    2.71175921e+00   -3.38019958e+00       -0.00000183     -0.00000075     -0.00000441  
H     -3.25813412     -1.07128878     -7.69521622      1.94448495e+00    8.07164763e-01   -9.28589761e-01       -0.00000196     -0.00000073     -0.00000479  
H     -3.28555907     -1.12143441     -7.74586300     -8.49000642e-01    6.73499767e+00   -6.07465760e+00       -0.00000187     -0.00000067     -0.00000451  
H     -3.29598109     -1.10701731     -7.79471619      5.90638902e+00    1.52057253e+01    3.13487432e+00       -0.00000182     -0.00000063     -0.00000445  
H     -3.26952063     -1.11522100     -7.84796337      1.33477961e+01   -5.16201032e+00   -2.41977802e+00       -0.00000176     -0.00000062     -0.00000434  
H     -3.35551092     -1.09324109     -7.81864405      5.69017295e+00    5.65335753e+00   -7.83541875e+00       -0.00000180     -0.00000060     -0.00000434  
H     -3.32958761     -1.15355627     -7.84734750      9.59971132e-01   -7.07402604e+00    2.26912834e+00       -0.00000174     -0.00000060     -0.00000414  
H     -3.40652170     -1.02563017     -7.86154069     -5.92164602e+00    1.00777684e+01    6.50958987e-01       -0.00000169     -0.00000054     -0.00000395  
H     -3.38925106     -1.12407219     -7.85469148      6.60958332e+00    5.36658988e+00   -9.72372352e+00       -0.00000169     -0.00000056     -0.00000388  
H     -3.42084956     -1.26293655     -7.83916688     -7.27325767e+00    6.61614804e+00    5.51019983e-01       -0.00000179     -0.00000064     -0.00000403  
H     -3.37249988     -1.20789073     -7.83910824     -1.10638417e+01   -9.50018865e+00   -3.12010979e+00       -0.00000178     -0.00000068     -0.00000408  
H     -3.37130458     -1.17970363     -7.86957928     -8.72801069e+00   -3.90541604e+00   -1.03542230e+01       -0.00000176     -0.00000063     -0.00000402  
H     -3.28416107     -1.20200016     -7.82450315      8.56177028e+00    8.23594340e+00   -2.80555174e+00       -0.00000183     -0.00000066     -0.00000428  
H     -3.30166647     -1.31961747     -7.81625761      2.32834227e+01    1.56274392e+00   -5.51921340e+00       -0.00000180     -0.00000066     -0.00000415  
H     -3.30923181     -1.29786688     -7.70909225      3.04045009e+00   -2.50766513e+00   -1.95184205e+01       -0.00000190     -0.00000070     -0.00000440  
H     -3.22299736     -1.32328813     -7.70695393      8.05940635e+00    9.49400496e+00    8.26940977e-01       -0.00000200     -0.00000075     -0.00000469  
