96
100000  xi=   0.07752023  Mean pot=  -105.85459918  Cent pot=  -108.53303862 kcal/mol
H      0.28829293      5.08005129     -0.60594733     -5.68396818e+00   -1.92523509e+00   -8.19480562e+00        5.77646712     25.24913543    -39.09171785  
H      0.27335448      4.97626668     -0.56404972     -9.81765677e+00    1.02817975e+00    4.58296001e+00       -1.34813939     -4.52709473      8.81914228  
H      0.33993263      4.97535803     -0.54791939     -7.49018723e+00   -1.74146292e+00   -7.66129777e+00       -0.85519428     -3.04917137      6.68204942  
H      0.30488971      4.99274867     -0.61222372     -4.77519453e+00    1.50039101e+01   -1.26724204e+01       11.08888725     29.71149401    -73.72763677  
H      0.28019506      4.98579022     -0.56216217      6.96912846e+00    7.47990977e+00    1.75891086e+01       -0.62792183     19.39469014    -40.83399073  
H      0.25739776      5.12988132     -0.56321319      6.44395348e+00    4.89641711e+00    1.37447203e+01        1.10791079      7.98955951    -15.07576356  
H      0.21801089      5.28782506     -0.63017358      8.76782728e+00   -2.46979529e+00    5.46491457e+00       -2.23055882     22.59184142    -31.21772755  
H      0.26653221      5.31141555     -0.59221053      1.20106329e+01   -8.61060515e+00    6.08176076e-01        8.07159976     48.37184866    -50.46909956  
H      0.23523813      5.29427471     -0.46171101      3.07353625e+00    5.21460768e+00   -1.07213511e+01        2.91573047     35.03916664    -20.79998854  
H      0.14890286      5.37142074     -0.39581074      8.71115058e-01   -5.41658437e+00   -9.97859063e+00       12.95067782     52.98476988    -25.28692467  
H      0.19666598      5.33237070     -0.46810651      2.36486179e+00    1.84538154e+00   -6.80180619e+00       25.97581803     68.37347059    -39.06562793  
H      0.15962972      5.35626453     -0.46259916     -4.26916072e+00    6.08526359e+00    6.46893580e+00       25.58702953     55.48755472    -33.68369954  
H      0.02730634      5.28423869     -0.45530899      1.79667598e+00   -4.33377004e+00   -1.73468500e+01       15.72211466     49.09264070    -41.27368191  
H     -0.01752425      5.29047319     -0.53220305     -2.62833798e+00   -4.19391226e+00   -1.00888773e+01       19.22816433     63.07835743    -51.00930765  
H      0.03001574      5.18858748     -0.45463636     -2.00700409e+01    2.17323475e+01    1.14782090e+00       12.17789273     17.42440451    -17.43227496  
H      0.04223621      5.18052704     -0.42972224      3.36017880e+00    6.28936135e+00    6.52521452e-01        9.65623295     24.20831957    -24.01491323  
H      0.03237584      5.24481947     -0.47462162     -3.08184785e+00   -9.30091497e+00    5.91291882e+00        3.11375490     14.24546343    -15.89484597  
H     -0.04846836      5.18737769     -0.53055425     -4.61545927e+00    9.27305025e+00    7.04084924e+00        2.69721249     36.93469880    -61.63670044  
H      0.04151931      5.13932902     -0.50147134     -4.39360175e+00   -1.25655054e+01    3.13134597e+00       11.41205991     48.75185458    -74.87790601  
H     -0.00212844      5.05574742     -0.37840406     -2.09247078e+00   -7.73573666e-01    1.95162353e+00       -8.37300871    -36.89252509     48.91280338  
H      0.11038822      5.02913649     -0.37168679      7.24271463e+00   -2.13780181e+00   -1.44400108e+00        2.33015091      2.59969855     -3.90251084  
H      0.17589326      5.04008736     -0.40895150      1.87509996e-01    3.84256956e+00    1.80356497e+01       33.76507160     39.35129408    -52.87055438  
H      0.30498160      5.01555246     -0.39467258     -3.89324187e+00    5.91074511e+00   -8.41807403e+00       30.48774918     22.57779264    -38.66573610  
H      0.34008268      5.09331932     -0.36448808     -8.66228456e-01    9.52504122e-01   -1.05401470e+01       35.54045556     33.29569868    -47.79760476  
H      0.42143140      5.06463268     -0.37079012      2.30969229e+00    6.59639321e+00   -2.34427894e+00       36.67627148     30.82564766    -48.80917921  
H      0.39870687      5.12427883     -0.46840756      1.60416206e+01    3.68728405e+00    1.82042804e+00       16.44529295     24.01750220    -26.83686963  
H      0.41127292      5.16147152     -0.43971749     -5.15706202e+00   -4.77930520e+00   -1.39962079e+01       -4.09160313     -2.97117073      4.57740869  
H      0.32292391      5.17410461     -0.36256500      9.18953692e+00   -4.94537883e+00    1.30368340e+01      -33.29640372    -68.53464810     53.59134595  
H      0.33552290      5.13122137     -0.44757985     -4.58265769e+00    8.95105081e+00   -9.76879464e-01        0.53137704      0.84931616     -0.82990299  
H      0.38238884      5.12110166     -0.51784382      1.49453132e-01    2.36668961e+00   -3.21448384e-02       30.23664746     61.25729232    -67.85156236  
H      0.25936871      5.11606614     -0.51139184      7.50919043e+00   -6.08120149e+00   -7.92632425e+00       20.09049867     58.02620788    -69.30656578  
H      0.20307940      5.03594103     -0.58040501      8.65651074e+00    7.48671080e+00   -3.84723092e+00        4.25612180     27.87577675    -39.72948520  
H      0.18823434      4.64269179      0.07119010      1.20300554e+01    3.00432938e+00   -2.11967873e+00       -5.77646708    -25.24913361     39.09171774  
H      0.17498385      4.64593496      0.07946275     -1.02715007e+01   -5.34897178e+00    1.15374789e+00        1.34813943      4.52709658     -8.81914238  
H      0.25516468      4.67312020      0.11441386     -6.58937026e+00   -5.86550131e-01    1.88136191e-01        0.85519432      3.04917319     -6.68204950  
H      0.18097162      4.66072335      0.21168110      7.06168926e+00   -1.05040696e+01   -9.13502051e-01      -11.08888719    -29.71149220     73.72763671  
H      0.29143243      4.63870039      0.16860814     -8.69305730e+00    4.85850049e-01   -9.02878854e-02        0.62792190    -19.39468831     40.83399066  
H      0.20790631      4.77297999      0.11023578     -7.57125476e+00    6.82235269e+00    1.81213225e-01       -1.10791075     -7.98955776     15.07576350  
H      0.26407608      4.82126148      0.01453062     -1.75233199e+00   -3.00966596e+00   -2.07583792e+00        2.23055886    -22.59183968     31.21772749  
H      0.16718147      4.71602198      0.02899744     -7.57622180e+00   -1.17626713e+00   -8.52574828e+00       -8.07159973    -48.37184703     50.46909950  
H      0.17806035      4.60715308     -0.05382111     -1.62341357e+01   -6.37930390e+00    9.98046355e-01       -2.91573043    -35.03916494     20.79998849  
H     -0.03207667      4.63098395     -0.04243807     -9.21918309e-01    4.67084233e+00    2.96783543e+00      -12.95067779    -52.98476821     25.28692463  
H     -0.08730908      4.58489241     -0.04102991     -7.19054376e-01   -1.94316583e+00    1.21160586e+01      -25.97581800    -68.37346890     39.06562789  
H     -0.15740875      4.66874083     -0.04523815      1.40020505e+00    2.01881125e+00    9.62815839e+00      -25.58702951    -55.48755301     33.68369950  
H     -0.17615749      4.64891854      0.07882407      3.34129069e+00    1.25460280e-01   -5.53515341e+00      -15.72211464    -49.09263894     41.27368187  
H     -0.22698979      4.60331751      0.02347622     -8.61387531e+00   -1.00138006e+00   -9.45664256e+00      -19.22816431    -63.07835561     51.00930761  
H     -0.31505506      4.69485240      0.03932176      9.34678618e-01    7.69359819e+00    8.79885241e-01      -12.17789273    -17.42440273     17.43227492  
H     -0.17349227      4.63969256      0.10679140      2.12580195e+00   -3.76085680e+00    2.02467048e+01       -9.65623294    -24.20831778     24.01491318  
H     -0.07879789      4.73619840      0.09288915     -3.64178583e+00   -7.00667514e+00   -8.24484001e+00       -3.11375488    -14.24546162     15.89484590  
H     -0.08112160      4.74023540      0.21563773     -3.56821345e+00   -6.50702336e+00   -2.71586786e+00       -2.69721248    -36.93469681     61.63670035  
H     -0.07714410      4.63240379      0.27711444     -1.35563568e+00   -1.62301439e+00   -1.83083972e+00      -11.41205989    -48.75185256     74.87790594  
H     -0.09430602      4.64960144      0.16007191     -1.25819894e+01   -3.66554866e+00   -1.39305144e+00        8.37300874     36.89252716    -48.91280346  
H     -0.22251402      4.65772484      0.18585419     -8.34591519e+00   -2.45442443e+00   -4.27257000e+00       -2.33015089     -2.59969648      3.90251077  
H     -0.22390239      4.57414799      0.21706280     -2.55154134e-01    3.04077691e+00   -8.29606662e+00      -33.76507156    -39.35129195     52.87055431  
H     -0.16045314      4.67087340      0.19560967      1.29070784e+01    1.25740744e+00   -7.15128240e+00      -30.48774914    -22.57779062     38.66573604  
H     -0.10802137      4.67351781      0.23815754      7.05183666e+00    2.05893139e+01    1.13498809e+01      -35.54045550    -33.29569656     47.79760470  
H     -0.04016045      4.67667429      0.24350131     -1.72161290e+00    2.65322685e+00   -2.69329705e+00      -36.67627141    -30.82564563     48.80917915  
H      0.06687379      4.63965375      0.07310673     -1.93328720e+00   -7.30151326e+00   -1.00330883e+00      -16.44529287    -24.01750032     26.83686956  
H     -0.02880498      4.84190315      0.05261189      9.88857273e+00   -4.97274088e+00    1.57498664e+00        4.09160319      2.97117255     -4.57740876  
H      0.08803546      4.69062905      0.01549349     -8.03229827e+00   -1.16325513e+01   -5.74598893e+00       33.29640378     68.53465002    -53.59134602  
H      0.03195547      4.64602073      0.02653081      3.96511843e+00    1.64715472e+01    1.84157840e+01       -0.53137699     -0.84931422      0.82990291  
H      0.07757429      4.50356911      0.16616533      5.51280856e+00    1.79153792e+01   -4.47680176e+00      -30.23664740    -61.25729041     67.85156229  
H      0.05341112      4.52121095      0.19910386      7.95675648e+00    4.89753612e+00    5.33871529e+00      -20.09049862    -58.02620596     69.30656569  
H      0.13180850      4.56914713      0.08488522      1.87788467e-01   -5.57470859e+00    2.14216701e+00       -4.25612176    -27.87577485     39.72948510  
H     -0.13644726     -9.87651432      0.62573393      1.75945727e+01    5.33949151e+00   -4.08957466e-01       -0.00000005     -0.00000182      0.00000010  
H     -0.09076938     -9.89230436      0.56908279     -3.05486804e+00   -1.14771680e+01   -3.41746203e+00       -0.00000004     -0.00000185      0.00000010  
H     -0.10030083     -9.91968383      0.48320141      5.11418420e+00    1.90361558e+01    3.90733851e+00       -0.00000005     -0.00000181      0.00000008  
H     -0.28679370     -9.93025248      0.36050304      3.37829910e+00    8.50149980e+00    2.13658698e+00       -0.00000006     -0.00000180      0.00000006  
H     -0.21162777     -9.91900364      0.39447231      4.45077966e+00   -1.01959978e+01    9.37111460e+00       -0.00000006     -0.00000183      0.00000007  
H     -0.13690243     -9.87743191      0.34208111      8.41847518e-01   -1.06940750e+01    5.61508175e+00       -0.00000004     -0.00000175      0.00000006  
H     -0.07909280     -9.78416535      0.28925568     -2.65659971e+00    5.34380841e+00    7.63592708e+00       -0.00000004     -0.00000175      0.00000007  
H     -0.07389970     -9.97912815      0.35163802      2.38641544e+00   -2.62117788e+00   -9.42797937e-02       -0.00000003     -0.00000163      0.00000006  
H     -0.12887462     -9.96738025      0.29452923     -1.05087644e+01   -2.44027951e+00    2.32329185e+00       -0.00000004     -0.00000170      0.00000006  
H     -0.18738671     -9.97642078      0.20530899     -1.46298465e+01   -9.24663430e+00    2.73622273e+00       -0.00000003     -0.00000166      0.00000004  
H     -0.26855136     -9.99401966      0.14472100     -5.09565553e+00   -5.35197688e+00   -1.70702689e+00       -0.00000003     -0.00000168      0.00000004  
H     -0.19362137     -9.89720477      0.14809266     -9.67122175e+00   -1.59710335e+00    8.96438073e+00       -0.00000002     -0.00000171      0.00000004  
H     -0.24355492     -9.88246394      0.18017243      6.62522980e+00   -7.15617922e+00    9.77466535e+00       -0.00000002     -0.00000176      0.00000004  
H     -0.29261253     -9.83556858      0.14541707      1.56654299e+00   -1.86318836e+00    8.13207289e+00       -0.00000002     -0.00000182      0.00000004  
H     -0.20869167     -9.86946615      0.20047504     -7.21216506e+00   -1.11471803e+01    1.03560834e+01       -0.00000001     -0.00000178      0.00000005  
H     -0.15885510     -9.89041846      0.33876028     -4.88854928e+00   -2.59410157e+00   -7.58502395e+00       -0.00000001     -0.00000179      0.00000006  
H     -0.22839022     -9.78722718      0.42434380      7.03350993e+00    1.70171889e+00   -1.01348397e+00       -0.00000002     -0.00000180      0.00000007  
H     -0.18582816     -9.60206549      0.55315272      2.94962964e+00   -2.03344253e-01    1.43788966e+00       -0.00000002     -0.00000199      0.00000009  
H     -0.21325255     -9.65223338      0.50252685      1.56097147e-01    5.72641201e+00   -3.70998295e+00       -0.00000003     -0.00000202      0.00000008  
H     -0.22363155     -9.63778467      0.45363613      6.90777096e+00    1.41944099e+01    5.50278591e+00       -0.00000002     -0.00000207      0.00000008  
H     -0.19724322     -9.64601867      0.40043040      1.43554042e+01   -6.17071058e+00   -5.54449504e-02       -0.00000002     -0.00000207      0.00000007  
H     -0.28315661     -9.62401997      0.42971826      6.69114246e+00    4.64303833e+00   -5.46837236e+00       -0.00000003     -0.00000213      0.00000007  
H     -0.25728907     -9.68433609      0.40102562      1.96575456e+00   -8.08426741e+00    4.63524155e+00       -0.00000004     -0.00000203      0.00000007  
H     -0.33420734     -9.55642723      0.38684588     -4.91722884e+00    9.06901741e+00    3.01591238e+00       -0.00000006     -0.00000212      0.00000006  
H     -0.31690726     -9.65483966      0.39366189      7.61145891e+00    4.35528137e+00   -7.35590648e+00       -0.00000007     -0.00000203      0.00000006  
H     -0.34857055     -9.79373600      0.40922822     -6.26578938e+00    5.60760212e+00    2.91523557e+00       -0.00000007     -0.00000188      0.00000007  
H     -0.30014257     -9.73866659      0.40925065     -1.00631322e+01   -1.05107720e+01   -7.52768421e-01       -0.00000006     -0.00000182      0.00000007  
H     -0.29901269     -9.71048673      0.37879811     -7.72165354e+00   -4.91537310e+00   -7.98847715e+00       -0.00000006     -0.00000192      0.00000007  
H     -0.21183869     -9.73279480      0.42387970      9.56549443e+00    7.22698225e+00   -4.40278101e-01       -0.00000005     -0.00000194      0.00000008  
H     -0.22932936     -9.85038567      0.43209768      2.42858778e+01    5.51499251e-01   -3.15155973e+00       -0.00000006     -0.00000191      0.00000007  
H     -0.23694965     -9.82866751      0.53930346      4.04764778e+00   -3.51610938e+00   -1.71542539e+01       -0.00000005     -0.00000192      0.00000008  
H     -0.15063851     -9.85406128      0.54140218      9.05998599e+00    8.48318705e+00    3.19452470e+00       -0.00000004     -0.00000190      0.00000010  
