3
100000  xi=   1.12060244  Mean pot=  -106.66520516  Cent pot=  -109.14591431 kcal/mol
H     -1.66975317     -0.19881114     -0.24448859       0.27924559
H      0.56371006     -0.15557084      0.12729717       0.15329744
H      1.10604311      0.35438198      0.11719142       0.14992514
3
200000  xi=   1.12388130  Mean pot=  -107.80313186  Cent pot=  -109.01762018 kcal/mol
H     -1.52582513     -0.71409517      0.46336686       0.18309579
H      0.46876052      0.20724959     -0.08917977       0.17074387
H      1.05706462      0.50684558     -0.37418709       0.18213492
3
300000  xi=   1.12139999  Mean pot=  -103.05002375  Cent pot=  -107.31760096 kcal/mol
H     -1.56443261      0.56837519     -0.38167656       0.21450680
H      0.43850231     -0.50027018      0.21168883       0.14188873
H      1.12593030     -0.06810501      0.16998773       0.17806216
3
400000  xi=   1.12633388  Mean pot=  -106.78691224  Cent pot=  -109.27329177 kcal/mol
H     -1.33727378     -1.16931221      0.01472577       0.16825583
H      0.39513103      0.37179723      0.13643912       0.17948801
H      0.94214275      0.79751498     -0.15116489       0.18599832
3
500000  xi=   1.11938362  Mean pot=  -106.07725416  Cent pot=  -108.70427590 kcal/mol
H     -0.58993313     -0.34919928     -1.63186045       0.23442893
H      0.15261780      0.16276686      0.45233297       0.15531643
H      0.43731534      0.18643241      1.17952747       0.15132010
3
600000  xi=   1.11747212  Mean pot=  -106.25882754  Cent pot=  -108.68060847 kcal/mol
H      0.12291926     -1.10084417     -1.26210258       0.18472914
H     -0.17270571      0.33385478      0.37194872       0.10525295
H      0.04978645      0.76698940      0.89015387       0.18399996
3
700000  xi=   1.11439098  Mean pot=  -106.78592492  Cent pot=  -108.58886910 kcal/mol
H      0.12881556      1.56184519      0.51514231       0.23617438
H     -0.12931482     -0.51511177     -0.03065812       0.18044395
H      0.00049926     -1.04673342     -0.48448419       0.18404134
3
800000  xi=   1.12426222  Mean pot=  -106.48814197  Cent pot=  -108.93687633 kcal/mol
H     -0.26181336      0.69139882     -1.48375544       0.16131729
H     -0.19203313     -0.35792216      0.57085266       0.19087951
H      0.45384649     -0.33347666      0.91290278       0.17737427
3
900000  xi=   1.11680323  Mean pot=  -105.27164399  Cent pot=  -109.19385636 kcal/mol
H     -0.38362247      1.39377475      0.92748247       0.17836376
H      0.14708279     -0.35888822     -0.31428146       0.26036081
H      0.23653968     -1.03488653     -0.61320102       0.21346383
3
1000000  xi=   1.12464341  Mean pot=  -104.45047739  Cent pot=  -109.01192866 kcal/mol
H     -0.52326513     -0.97410836      1.24926466       0.20913609
H     -0.07265884      0.32340456     -0.62570599       0.16291261
H      0.59592396      0.65070381     -0.62355867       0.19308171
3
1100000  xi=   1.11637077  Mean pot=  -106.78854721  Cent pot=  -108.66628674 kcal/mol
H      0.43163184     -1.46356092     -0.61730921       0.18838178
H     -0.01954899      0.57443082      0.05483901       0.18382183
H     -0.41208285      0.88913010      0.56247020       0.22571143
3
1200000  xi=   1.12131599  Mean pot=  -106.57681837  Cent pot=  -107.38389040 kcal/mol
H      0.87406894     -1.42780858      0.11735547       0.26591981
H     -0.20932526      0.49967785      0.07726034       0.21714073
H     -0.66474368      0.92813073     -0.19461581       0.20299185
3
1300000  xi=   1.12485380  Mean pot=  -106.45805748  Cent pot=  -109.09209489 kcal/mol
H     -0.42111350     -1.04358751     -1.28419418       0.21685065
H     -0.01152943      0.21776630      0.62644603       0.26066179
H      0.43264293      0.82582120      0.65774815       0.20008888
3
1400000  xi=   1.12954629  Mean pot=  -105.45639972  Cent pot=  -107.92167793 kcal/mol
H      0.04127513      0.97774677      1.27482257       0.16777311
H     -0.17257192     -0.67731265     -0.38667234       0.24782023
H      0.13129679     -0.30043412     -0.88815024       0.21294158
3
1500000  xi=   1.13442792  Mean pot=  -104.60261783  Cent pot=  -104.25870388 kcal/mol
H     -1.11509901     -0.74062790     -0.73406202       0.20185691
H      0.77340306      0.14300521      0.45411333       0.19654201
H      0.34169595      0.59762269      0.27994869       0.31546984
3
1600000  xi=   1.12248301  Mean pot=  -102.26806695  Cent pot=  -108.43503241 kcal/mol
H     -0.31681544     -1.20978442      0.87505798       0.18976789
H      0.45767904      0.68359836     -0.23982981       0.16852731
H     -0.14086360      0.52618607     -0.63522817       0.20045923
3
1700000  xi=   1.11398707  Mean pot=  -105.70854754  Cent pot=  -108.76919363 kcal/mol
H      0.59092249     -1.05417227     -1.23467422       0.18248020
H     -0.17281369      0.24489974      0.38067961       0.15178853
H     -0.41810879      0.80927252      0.85399461       0.19689979
3
1800000  xi=   1.12561250  Mean pot=  -102.95993399  Cent pot=  -108.68196009 kcal/mol
H      1.47163731     -0.14585119     -0.57458654       0.16060647
H     -0.67889232     -0.28134017      0.35597910       0.19692038
H     -0.79274499      0.42719136      0.21860744       0.17661879
3
1900000  xi=   1.12448747  Mean pot=  -106.37693997  Cent pot=  -108.29528589 kcal/mol
H      0.07228688     -1.33945974     -0.71932000       0.19488810
H     -0.28927470      0.85204259      0.14594645       0.15054705
H      0.21698782      0.48741715      0.57337354       0.17553490
3
2000000  xi=   1.13141862  Mean pot=  -107.11014103  Cent pot=  -108.73885944 kcal/mol
H     -0.71428881     -1.36752011     -0.50619622       0.22580998
H      0.65219682      0.46731474      0.35596999       0.15144262
H      0.06209199      0.90020537      0.15022623       0.19143714
