96
100000  xi=   0.69339731  Mean pot=  -107.60030044  Cent pot=  -109.48175296 kcal/mol
H     -0.20957690      1.10594576     -1.93699030     -3.88726405e+00    4.31856640e+00   -9.45619174e+00       18.47502095    -45.52787891     66.14543125  
H     -0.21996352      0.98617891     -1.94514652      1.58364991e-01   -4.38105118e+00    4.24597315e+00       19.90558338    -32.10525493     84.34930060  
H     -0.14196143      1.02110369     -1.89018418     -1.89210069e+01   -7.38839454e+00   -2.07336510e+00       32.67825291    -67.11136852    133.59628144  
H     -0.16794979      1.03172435     -1.91936564      1.09952103e+00    1.00533571e+01   -5.85592816e-01        4.32172174    -16.59052705     36.40628025  
H     -0.14290696      1.07937250     -1.92694180      7.90268108e-01    1.51400246e+00    2.93987620e+00       -4.17146770     15.52802073    -24.64770282  
H     -0.16523280      1.28877546     -1.86559089     -2.04450624e+00    1.60182886e+00    8.99650181e+00        0.71784840     -8.07240969      6.90347112  
H     -0.14133736      1.38038438     -1.99835687     -6.70617305e+00   -1.78575968e+00    5.36463724e+00       -0.69349013     20.28201635    -22.02559259  
H     -0.10255617      1.32660848     -2.08320149     -8.45329845e-01   -6.02111334e+00   -4.00391437e+00       10.51715873     49.20573776    -77.87552552  
H     -0.21093829      1.21970103     -1.97768581     -1.21901513e+00    1.89288174e+00    3.37549376e+00       -2.00512403      9.42822259    -14.36635367  
H     -0.35876837      1.26497359     -1.92327687      2.42354089e+00   -1.01215766e+01   -7.89111458e+00        0.96508198     -4.46143720      6.62725533  
H     -0.32741915      1.17697519     -1.95108058     -1.96886089e+00   -3.99934423e+00   -6.53414972e+00        2.09430457    -37.50118171     69.94391811  
H     -0.42826670      1.24410277     -1.97825481      7.09834223e-01    1.41868952e+01    2.83455401e-01        0.58060925     -1.76921393      3.33015152  
H     -0.43800644      1.19381767     -1.95114399      7.01671524e+00   -1.84539167e+00   -9.26950279e+00        0.89969351     15.40261900    -33.34223973  
H     -0.47515536      1.22596860     -1.95638815     -1.79358560e+00   -1.70566844e+00   -6.24777904e+00        0.02508779      0.25464974     -0.34867229  
H     -0.46382040      1.28081553     -1.88778016     -1.84983739e+01    1.35785486e+01   -1.30048173e+00        4.73321250     25.32906223    -25.25454284  
H     -0.39675632      1.18275952     -1.88115946      2.20402717e-01   -4.11143603e+00    1.04162040e+01        2.14936338     10.78382566    -16.13804245  
H     -0.40195276      1.26523937     -1.88708694     -5.35454401e+00   -5.43199937e+00   -3.77261615e+00        0.19737179     -7.74218686     10.62476445  
H     -0.41261769      1.22008423     -1.89213863     -8.82090144e+00   -4.46813112e+00   -1.57882896e+00        1.51479888     11.60648965    -19.71675446  
H     -0.33920096      1.18383717     -1.83290432     -2.89896821e+00   -8.20291872e+00   -1.66577322e+00        5.23558127     23.89835607    -32.04706091  
H     -0.38249788      1.13228282     -1.80785816     -4.51846592e+00    9.48905183e-01   -8.20815872e+00       -0.12344961     -0.69969803      0.94791199  
H     -0.41196913      1.14507707     -1.76633387      8.47133752e+00   -6.89544659e+00   -3.50018785e+00       -0.68067458     -9.42663975     10.59904204  
H     -0.39324162      1.13098341     -1.77524118      1.31096481e+00    8.19711703e+00    1.19102532e+01        0.17983185     11.57030750    -12.16588060  
H     -0.23538972      1.17728712     -1.81045658      6.35615173e+00   -1.63401552e+00   -2.65726345e+00        9.04007284     37.61192187    -42.43334769  
H     -0.18530463      1.13523818     -1.81028713      1.26938817e+01    5.19647522e+00    7.47710863e+00        7.28861295     19.33143542    -34.86750430  
H     -0.08119959      1.16016297     -1.80669649      2.52898365e+00    7.38632711e+00    3.27402129e-01       14.89386004     33.55608269    -49.95813254  
H     -0.05284160      1.18171730     -1.91731203      1.36111393e+01   -2.00448200e+00    1.32347508e+01       10.16995076     27.70039727    -36.75245462  
H     -0.07323181      1.29866023     -1.97343026      1.60204479e+00   -2.96436500e+00    1.94798844e+00       20.28546353     44.00360271    -70.29625949  
H     -0.21457542      1.14617416     -1.95976164     -2.38396265e+00   -3.76403214e+00   -8.03956440e+00       -6.30409730     20.60853701    -51.69111339  
H     -0.14172809      1.07741288     -1.98415390     -9.29952052e+00    1.45937004e+01    1.59758692e+01        4.19488604     11.21243710    -32.51244033  
H     -0.16366644      0.98853956     -1.89149586      3.40131209e+00    1.55202027e+01   -4.06223237e-01        4.74905763    -26.88118073     72.95454856  
H     -0.28642308      0.99428105     -1.90386784      5.15427837e+00    5.24347522e-01   -6.17528632e+00        0.21152689     -0.35099189      1.05121768  
H     -0.26844198      1.03854298     -1.98893102      5.71310795e+00   -1.22165811e+00   -7.96600706e+00       -3.73988020     10.46271934    -20.22023272  
H     -0.06049900      0.73858439     -1.40327552      1.01734942e+01   -5.17683467e+00   -2.29509670e-01      -18.47542895     45.52982985    -66.14901414  
H     -0.07831331      0.75772863     -1.34492233     -2.03044659e+01   -1.87939691e+00    2.11017676e+00      -19.90610305     32.10759869    -84.35302804  
H     -0.00952512      0.74912768     -1.34876547      4.78181506e+00    3.12149126e+00   -4.76900291e+00      -32.67874503     67.11389179   -133.60034305  
H     -0.09283698      0.74339093     -1.28660917      1.12788030e+00   -7.49866505e+00   -1.23755088e+01       -4.32235041     16.59382315    -36.41131013  
H     -0.03206168      0.66674204     -1.27196679     -2.57344329e+00    4.51142467e+00    1.51893730e+01        4.17082405    -15.52483002     24.64240580  
H     -0.11608400      0.73571178     -1.39276517      8.55995058e-01    8.17142622e+00    5.55489647e+00       -0.71864656      8.07504980     -6.90829896  
H     -0.12319435      0.85026148     -1.42262421      1.36647602e+01   -5.63720134e+00   -1.34568087e+00        0.69258287    -20.27928640     22.02084669  
H     -0.21029627      0.82249598     -1.28536819      5.21663393e+00   -5.71078270e+00   -3.28572767e+00      -10.51813528    -49.20295768     77.87131739  
H     -0.12237745      0.80330985     -1.34320368     -1.19987974e+01   -5.00626048e+00   -1.24700214e+01        2.00434085     -9.42523663     14.36176127  
H     -0.27097623      0.85902870     -1.32025821     -2.53663710e+00    7.43518772e+00    1.51139643e+00       -0.96602925      4.46470167     -6.63202654  
H     -0.30982932      0.86187878     -1.36337609      3.55424227e+00    1.95010155e+00    1.24731620e+01       -2.09529474     37.50458316    -69.94866592  
H     -0.31611558      0.90241990     -1.33484474     -3.63555769e+00   -8.01898464e+00    1.64461169e+01       -0.58165008      1.77275269     -3.33518393  
H     -0.45742971      0.86094353     -1.23060329     -1.94278766e+00   -4.31294247e+00   -1.29885003e+01       -0.90110263    -15.39874419     33.33673146  
H     -0.51599582      0.78937526     -1.35763552     -9.50428169e+00   -5.43164906e+00   -1.26618007e+01       -0.02653365     -0.25112608      0.34305604  
H     -0.56780301      0.72423195     -1.33280828     -7.01870785e-01    1.39029362e+01    3.95309838e+00       -4.73477749    -25.32580368     25.24909547  
H     -0.48114124      0.75909289     -1.24713183      5.20930147e+00    4.69132448e+00    1.11144199e+01       -2.15076922    -10.78076230     16.13315439  
H     -0.39109799      0.83739861     -1.29999945     -1.42934955e+00   -1.28100906e+01    2.06976246e+00       -0.19840659      7.74486773    -10.62931964  
H     -0.46358459      0.82924468     -1.22818431      5.76100624e-01    5.28010028e+00    6.53104101e+00       -1.51604625    -11.60386558     19.71200419  
H     -0.44308261      0.70955257     -1.19688334     -2.90737634e+00   -7.92298033e+00    3.60390171e+00       -5.23697892    -23.89536954     32.04147108  
H     -0.46054139      0.69480819     -1.21588897     -1.02191256e+01   -7.33656910e+00    9.38877683e+00        0.12195162      0.70282523     -0.95381261  
H     -0.44680084      0.66352564     -1.22497831     -9.62919308e+00    3.61141485e-01   -1.57756821e+00        0.67909760      9.42992023    -10.60535778  
H     -0.40138210      0.60498892     -1.22209486     -1.44091691e+00   -3.25563943e+00   -1.54491049e+00       -0.18124019    -11.56694507     12.15912783  
H     -0.36668505      0.63097517     -1.19410048      2.59861072e+00    6.85237863e+00   -1.22770740e+01       -9.04152510    -37.60828975     42.42658709  
H     -0.32925213      0.75339517     -1.12156974     -6.56764928e+00    1.44097397e+01   -6.03700723e+00       -7.29007704    -19.32716650     34.85993802  
H     -0.28408611      0.70303172     -1.12611784     -2.00227711e+00   -8.77068048e-02   -4.73812536e+00      -14.89520921    -33.55191666     49.95081342  
H     -0.22818903      0.70406066     -1.28355185      4.39061496e-01   -3.54452603e+00   -1.17839174e+01      -10.17091131    -27.69725880     36.74692999  
H     -0.29087500      0.82652335     -1.21918549      3.06734721e+00   -8.73525851e+00   -1.37467547e+01      -20.28651732    -44.00034729     70.29087608  
H     -0.12104443      0.84040540     -1.19284764      3.48141631e+00   -1.47567833e+01    1.59656845e+01        6.30332761    -20.60481521     51.68522461  
H     -0.23740656      0.82158779     -1.24240480      8.62176416e+00    8.88745993e+00    2.08578992e+00       -4.19596220    -11.20918427     32.50726017  
H     -0.12293160      0.75795714     -1.26567017      2.20132194e+00    2.81819256e+00   -3.47362312e+00       -4.74981839     26.88434897    -72.95944617  
H     -0.14741432      0.76475408     -1.21394339      1.02535251e+01   -3.64581516e+00    4.21421506e+00       -0.21215959      0.35397147     -1.05589800  
H     -0.14325256      0.68829180     -1.31205285      3.07113541e+00    1.18847446e+00    6.88665308e+00        3.73920104    -10.46016921     20.21583846  
H      0.61014046     -1.99826670      3.43122393      1.76557635e+01    7.27386005e+00   -1.03613675e+00        0.00040800     -0.00195094      0.00358289  
H      0.65583948     -2.01404687      3.37453927     -2.99738073e+00   -9.53435282e+00   -4.03471194e+00        0.00051967     -0.00234376      0.00372744  
H      0.64630896     -2.04141078      3.28870636      5.17158042e+00    2.09727866e+01    3.27129595e+00        0.00049212     -0.00252327      0.00406162  
H      0.45981758     -2.05190267      3.16585948      3.44057051e+00    1.04472464e+01    1.51830279e+00        0.00062868     -0.00329610      0.00502988  
H      0.53500365     -2.04064223      3.19989200      4.50697931e+00   -8.25440039e+00    8.73506504e+00        0.00064365     -0.00319072      0.00529702  
H      0.60969655     -1.99902655      3.14742719      9.04945870e-01   -8.75126165e+00    4.99242780e+00        0.00079816     -0.00264011      0.00482784  
H      0.66752696     -1.90576207      3.09458283     -2.59978522e+00    7.29053556e+00    7.00699418e+00        0.00090726     -0.00272995      0.00474590  
H      0.67268650     -2.10076420      3.15704543      2.44778980e+00   -6.78819732e-01   -7.26595286e-01        0.00097654     -0.00278008      0.00420812  
H      0.61770513     -2.08897730      3.09981307     -1.04485763e+01   -4.90391617e-01    1.70086054e+00        0.00078318     -0.00298596      0.00459240  
H      0.55922132     -2.09802605      3.01066672     -1.45707682e+01   -7.30532626e+00    2.09901846e+00        0.00094727     -0.00326447      0.00477121  
H      0.47802654     -2.11558381      2.94999594     -5.03285886e+00   -3.40282333e+00   -2.32787669e+00        0.00099017     -0.00340145      0.00474781  
H      0.55299031     -2.01875883      2.95335878     -9.61518161e+00    3.42232595e-01    8.33156777e+00        0.00104083     -0.00353876      0.00503241  
H      0.50304353     -2.00403350      2.98547365      6.68810832e+00   -5.20912426e+00    9.14731182e+00        0.00140912     -0.00387481      0.00550827  
H      0.45399381     -1.95714221      2.95064541      1.62485461e+00    8.06031407e-02    7.50204373e+00        0.00144586     -0.00352367      0.00561626  
H      0.53793020     -1.99107413      3.00582393     -7.15054164e+00   -9.20268726e+00    9.72469648e+00        0.00156499     -0.00325855      0.00544737  
H      0.58775439     -2.01203018      3.14406442     -4.82951099e+00   -6.47305236e-01   -8.21156264e+00        0.00140584     -0.00306336      0.00488806  
H      0.51825393     -1.90888198      3.22971630      7.09243614e+00    3.63921280e+00   -1.64415513e+00        0.00103480     -0.00268087      0.00455519  
H      0.56079046     -1.72374471      3.35858454      3.01021384e+00    1.74755437e+00    8.08466890e-01        0.00124737     -0.00262407      0.00475026  
H      0.53338029     -1.77391649      3.30789678      2.15442407e-01    7.66605070e+00   -4.34235620e+00        0.00139765     -0.00298653      0.00558984  
H      0.52301009     -1.75951990      3.25912686      6.96772428e+00    1.61423534e+01    4.87420323e+00        0.00149800     -0.00312720      0.00590062  
H      0.54936565     -1.76774540      3.20584485      1.44131059e+01   -4.22989647e+00   -6.88638906e-01        0.00157698     -0.00328048      0.00631575  
H      0.46347987     -1.74578825      3.23519817      6.75156197e+00    6.58760853e+00   -6.09694287e+00        0.00140834     -0.00336243      0.00675277  
H      0.48931307     -1.80613512      3.20653075      2.02492235e+00   -6.13770537e+00    3.99927574e+00        0.00145226     -0.00363212      0.00676060  
H      0.41239065     -1.67825434      3.19232139     -4.85612037e+00    1.10072860e+01    2.38993026e+00        0.00146409     -0.00426892      0.00756628  
H      0.42968386     -1.77671341      3.19926094      7.66985678e+00    6.30507575e+00   -7.98910496e+00        0.00134917     -0.00416603      0.00731913  
H      0.39800349     -1.91557373      3.21471981     -6.20444221e+00    7.54171979e+00    2.28768854e+00        0.00096054     -0.00313847      0.00552463  
H      0.44645965     -1.86050222      3.21480611     -1.00033842e+01   -8.56088972e+00   -1.37913346e+00        0.00105378     -0.00325542      0.00538341  
H      0.44755811     -1.83229588      3.18433199     -7.66114089e+00   -2.97565948e+00   -8.62341734e+00        0.00076969     -0.00372180      0.00588878  
H      0.53476089     -1.85458779      3.22935051      9.62687211e+00    9.17138935e+00   -1.05967953e+00        0.00107617     -0.00325283      0.00518016  
H      0.51726261     -1.97219114      3.23765372      2.43428478e+01    2.49340651e+00   -3.78657091e+00        0.00076076     -0.00316825      0.00489760  
H      0.50962981     -1.95042517      3.34475166      4.10905010e+00   -1.57833926e+00   -1.77743152e+01        0.00063270     -0.00297958      0.00468032  
H      0.59597593     -1.97582898      3.34692255      9.11728010e+00    1.04301927e+01    2.56395588e+00        0.00067915     -0.00255013      0.00439425  
