96
100000  xi=   0.73947918  Mean pot=  -106.73438368  Cent pot=  -109.50131003 kcal/mol
H     -0.05451658      0.49662594     -1.34635306     -1.50093397e+00   -1.51896240e+01    7.22298794e-01      -42.65668838     12.08212042    -25.03366014  
H      0.01270281      0.46206462     -1.32040657     -1.70356534e+01   -8.56856402e+00    8.68199077e-01       48.16733231     -8.59207034     22.14607784  
H      0.07106003      0.40857729     -1.25808483     -1.06376663e+01   -7.49675895e+00    5.59271383e+00       57.31260863    -21.39980653     33.39557752  
H     -0.01490430      0.44614984     -1.19753167     -1.21165464e+00    1.65904551e+00   -7.96009408e+00       47.08254867    -14.17583477     36.48779581  
H     -0.03104208      0.39334828     -1.23064628     -3.31778527e+00    1.65006718e+01    2.59152286e+00       -4.74410783      2.43649620     -3.85099782  
H     -0.04590554      0.52254604     -1.28704848      6.08880562e+00    1.31319954e+00    9.27402200e+00       17.25727549     -8.29533951     10.67771255  
H      0.02852929      0.65527396     -1.28184706      2.55226006e+00   -9.46975075e+00   -1.03162018e+00       72.01487134    -22.65746915     53.47714768  
H      0.02575461      0.65441847     -1.29570802      6.43952334e-01   -4.34582885e-01   -9.25038731e+00       73.76465799    -14.39734352     44.22194877  
H     -0.06682671      0.51709282     -1.28532832     -7.44117570e+00    6.90909128e+00   -1.09271004e+01       36.86337617    -18.00199327     26.39127790  
H     -0.25045392      0.53543109     -1.25625881      6.93021491e+00    5.46530067e+00   -2.07435825e+00       20.05277950    -13.42314779     15.50452460  
H     -0.27003783      0.49283982     -1.34305910      3.07902597e+00    2.54512289e+00    6.17608008e+00      -23.30529288     16.57363726    -14.50498735  
H     -0.37943019      0.54413220     -1.30053585      2.52630871e+00    8.19147806e+00    1.33345740e+01      -37.44049471     34.47516119    -37.52331608  
H     -0.44738590      0.50841487     -1.26589799      2.95944335e+00    3.71431580e+00   -1.10794432e+01      -74.31009752     62.31912353    -60.72952587  
H     -0.54327448      0.40847481     -1.32332706     -1.65467512e+00   -4.57116565e+00   -1.03127521e+01      -17.14671177     27.23212516    -19.13383594  
H     -0.46014923      0.31304000     -1.23519371     -1.00591030e+01    3.46568834e+00    2.11460835e+00       52.54872036    -68.74681278     43.89738406  
H     -0.41285199      0.35835110     -1.21893104      6.35552411e+00    1.59027708e+00    9.81669095e+00       26.22737646    -30.04360014     21.33486904  
H     -0.40557945      0.45923901     -1.23330642     -8.52719997e+00   -1.52804794e+01    1.42327218e+00        6.93636034     -8.63155833      7.15040714  
H     -0.39425615      0.50748143     -1.15045161     -7.41799736e+00    3.69027411e-01    7.03098161e+00       24.52891621    -16.84363030     24.81742468  
H     -0.28158663      0.54591202     -1.17004460     -5.99060526e+00   -6.48862934e+00    5.31451564e+00        5.91095814     -1.05400692      3.53036732  
H     -0.37835549      0.56034537     -1.09782716     -7.85096157e+00   -2.45879526e+00    4.86004278e+00      -10.98511416      0.41472531    -11.34577398  
H     -0.39911570      0.52020439     -1.10378252     -4.93946797e+00    7.57651099e+00   -2.28982224e+00      -45.41440229      7.66989463    -45.21057545  
H     -0.35417645      0.48920179     -1.12755605      4.18149395e+00    8.93922174e+00    3.46318006e+00      -58.78096507      8.18195200    -50.65792153  
H     -0.17872144      0.47183390     -1.13081143      3.68032454e+00   -8.67750970e-01   -4.37119474e+00       37.76491281    -10.10210241     24.79018284  
H     -0.14163202      0.47134983     -1.08848482      4.74871257e-01    1.04742608e+01    4.73028555e+00       42.96602421    -17.12672457     29.57798276  
H     -0.08162365      0.48009288     -1.17425676     -3.39241850e+00   -2.65542389e+00   -6.81972303e+00      -24.19745354      8.42868224    -10.79878857  
H     -0.04601746      0.38666174     -1.31409109      6.04496525e+00    2.09817498e+00    5.84598662e+00       24.61762595    -17.26301884     10.72762912  
H     -0.09024932      0.57789569     -1.33653592     -1.23121084e+01   -1.64466136e+00   -5.47072578e+00      -37.59936478     17.65182225    -13.22714592  
H     -0.04284293      0.46459152     -1.19953150      5.37448903e+00   -7.87138969e+00    4.83096280e+00       57.46551527    -31.86887665     38.35072705  
H     -0.11115936      0.44893131     -1.35148748      4.08556647e+00   -8.07481568e-02    5.27057451e+00      -43.78842883     23.93971036    -16.42907045  
H     -0.06919680      0.35478906     -1.29066204      3.09265221e+00    1.22711921e+01   -7.41733082e+00      -17.97750250     11.11489677     -8.51600092  
H     -0.14948883      0.40290635     -1.23745519      7.85479656e+00    3.32958182e+00   -1.85212244e+00      -33.13423942     15.95579587    -20.09365529  
H     -0.15421145      0.41292280     -1.35940331      1.41502767e+01    6.87029185e+00    7.51859349e+00     -119.45591560     48.99583954    -62.82626035  
H     -0.63259025      0.66031116     -1.68547852      7.91842431e+00    1.42646524e+01   -9.81692283e+00       42.65458484    -12.07836528     25.02435456  
H     -0.72805401      0.59425871     -1.66112897     -2.98505791e+00    2.23397550e+00    6.06930964e+00      -48.17028463      8.59677468    -22.15761945  
H     -0.63962769      0.67398547     -1.67231847     -3.37017755e+00    3.15569388e+00   -1.18422882e+01      -57.31620237     21.40564536    -33.40949710  
H     -0.66289700      0.64131589     -1.69985237      3.56554342e+00    8.23099588e-01   -4.40712839e+00      -47.08665232     14.18317800    -36.50430024  
H     -0.56099388      0.66504134     -1.65954186      1.66149759e+00   -1.05620267e+01    1.61317746e+01        4.74059809     -2.43030512      3.83639869  
H     -0.65236670      0.81420783     -1.66266680     -7.14523797e+00    8.39235646e+00    5.86999895e+00      -17.26103012      8.30157341    -10.69166810  
H     -0.71004878      0.88768536     -1.83038577      4.52870478e+00    1.95592458e+00    5.64550958e+00      -72.01941098     22.66433811    -53.49211077  
H     -0.75556557      0.80696354     -1.76419931      3.86347942e+00   -1.13698648e+01    2.55547390e+00      -73.76834883     14.40368143    -44.23475211  
H     -0.68338733      0.81825320     -1.72689671     -5.65713747e+00   -1.01119500e+01    2.43206818e+00      -36.86730455     18.00850486    -26.40502999  
H     -0.79625292      0.90088167     -1.67852431     -6.90653708e+00   -8.23337943e+00   -3.71039939e+00      -20.05728565     13.43012958    -15.51862014  
H     -0.78408153      0.85831672     -1.66273526     -1.36979104e+00   -4.67459120e+00    3.61918585e-01       23.30113917    -16.56677395     14.49073607  
H     -0.78189046      0.91468907     -1.70377148     -5.32176991e+00   -2.11412642e+00    3.98962265e+00       37.43601580    -34.46882009     37.50974258  
H     -0.86497507      0.85860358     -1.60710129      2.24810766e+00   -9.94040876e+00   -1.05867734e+01       74.30552929    -62.31286572     60.71568109  
H     -0.86481305      0.91917871     -1.68195368     -9.52379683e+00   -2.65799386e+00   -7.99516725e+00       17.14148546    -27.22594693     19.11908994  
H     -0.98850028      1.00424934     -1.67662331     -9.00089811e+00    2.39451734e+01    1.12466512e+00      -52.55530013     68.75447945    -43.91390672  
H     -0.88201808      0.89578647     -1.60073159     -8.06542616e-01   -1.09492435e+00    1.23136976e+01      -26.23238660     30.04953838    -21.34878406  
H     -0.80454795      0.95571476     -1.64508366      1.88210607e+00   -3.03248889e+00   -2.54063926e+00       -6.94042185      8.63664862     -7.16304808  
H     -0.89900052      0.85411733     -1.66129969     -7.02000356e-01    3.69050123e-01   -1.48204567e+00      -24.53302452     16.84823422    -24.82991916  
H     -0.91775072      0.65982974     -1.55116728      3.13187274e-01   -9.72051218e+00   -2.77799501e+00       -5.91521726      1.05950842     -3.54443825  
H     -0.88179181      0.57908821     -1.61734461     -6.75073857e+00   -3.99312762e+00   -3.09286553e+00       10.98035757     -0.40882534     11.33114901  
H     -0.87667020      0.60079666     -1.57907720      3.90446928e+00   -1.41946780e+01   -2.18349486e+00       45.40944963     -7.66388982     45.19567687  
H     -0.85754020      0.55921826     -1.56125323     -4.17211600e+00   -4.06272457e+00    7.48906862e+00       58.77639733     -8.17605431     50.64254714  
H     -0.84039361      0.64890984     -1.56535681      5.39365982e+00    6.00403653e+00   -9.95924209e+00      -37.77021887     10.10917606    -24.80808952  
H     -0.78997395      0.72984581     -1.53498990      5.78604262e+00    9.06212488e+00   -2.69905973e+00      -42.97188538     17.13453950    -29.59885467  
H     -0.70075407      0.69563080     -1.45019957      4.04350632e+00    9.87671077e+00    3.00311628e+00       24.19309579     -8.42172696     10.78091195  
H     -0.65202859      0.81170577     -1.57848073      8.13087690e+00   -7.72107882e+00   -3.79775813e+00      -24.62115385     17.26928259    -10.74358174  
H     -0.69095493      0.85984855     -1.54767575      1.71102507e+01   -1.01279374e+01   -5.73970830e+00       37.59622694    -17.64623864     13.21371767  
H     -0.70980713      0.83451189     -1.64476662     -4.15543486e+00   -1.07316511e+01    3.69869902e+00      -57.47029122     31.87631930    -38.36895291  
H     -0.68503980      0.76263898     -1.56665196     -4.63087941e+00    2.34933384e+01    1.33783797e+01       43.78504343    -23.93464078     16.41575278  
H     -0.63448906      0.70418745     -1.55806373      2.63307855e+00    5.98665338e+00    4.13207599e+00       17.97401959    -11.10929885      8.50169424  
H     -0.70136860      0.66860451     -1.57194459      7.68632235e+00   -6.51593413e+00    4.81825478e-01       33.13113354    -15.95089873     20.08103795  
H     -0.67458284      0.62634317     -1.63304153     -5.24248053e+00   -6.98301398e+00   -8.00909994e+00      119.45343172    -48.99200984     62.81625331  
H      1.02718265     -1.31064138      3.12273783      1.75235308e+01    7.33777902e+00   -1.62273833e+00        0.00210355     -0.00375514      0.00930558  
H      1.07295990     -1.32647454      3.06603796     -3.12674493e+00   -9.45918807e+00   -4.61883160e+00        0.00295232     -0.00470434      0.01154161  
H      1.06330221     -1.35375471      2.98015868      5.04781441e+00    2.10480294e+01    2.67861764e+00        0.00359374     -0.00583884      0.01391958  
H      0.87693215     -1.36422043      2.85723894      3.30544931e+00    1.05169714e+01    9.26992668e-01        0.00410365     -0.00734324      0.01650443  
H      0.95199246     -1.35295916      2.89122240      4.38686721e+00   -8.16400676e+00    8.13662920e+00        0.00350974     -0.00619108      0.01459913  
H      1.02668251     -1.31125627      2.83873163      7.70233703e-01   -8.68674669e+00    4.40453226e+00        0.00375464     -0.00623391      0.01395555  
H      1.08454252     -1.21809503      2.78587483     -2.72455926e+00    7.38308402e+00    6.40858774e+00        0.00453965     -0.00686896      0.01496309  
H      1.08956833     -1.41304621      2.84837092      2.31828042e+00   -6.05883249e-01   -1.32027498e+00        0.00369084     -0.00633790      0.01280334  
H      1.03470319     -1.40128552      2.79112857     -1.05766851e+01   -4.03235006e-01    1.10309421e+00        0.00392838     -0.00651159      0.01375209  
H      0.97609435     -1.41037682      2.70196023     -1.46998434e+01   -7.22015773e+00    1.50013362e+00        0.00450615     -0.00698180      0.01409553  
H      0.89494602     -1.42784628      2.64127805     -5.16090548e+00   -3.32605920e+00   -2.92206631e+00        0.00415371     -0.00686331      0.01425128  
H      0.96993710     -1.33108383      2.64461351     -9.74616980e+00    4.35069099e-01    7.73289096e+00        0.00447891     -0.00634111      0.01357350  
H      0.91990577     -1.31628697      2.67670314      6.55988512e+00   -5.14169143e+00    8.55746753e+00        0.00456823     -0.00625781      0.01384478  
H      0.87102580     -1.26943176      2.64189295      1.49720494e+00    1.70709657e-01    6.90120603e+00        0.00522631     -0.00617823      0.01474601  
H      0.95485980     -1.30335321      2.69709086     -7.28245891e+00   -9.12885218e+00    9.13472936e+00        0.00657977     -0.00766666      0.01652266  
H      1.00479169     -1.32427356      2.83538151     -4.95437997e+00   -5.66375392e-01   -8.80664526e+00        0.00501013     -0.00593824      0.01391502  
H      0.93531932     -1.22123005      2.92107184      6.95460887e+00    3.71287545e+00   -2.23411754e+00        0.00406151     -0.00509029      0.01264094  
H      0.97779880     -1.03600270      3.04998089      2.88938538e+00    1.82042166e+00    2.14503854e-01        0.00410831     -0.00460392      0.01249449  
H      0.95052192     -1.08625597      2.99932235      7.89338566e-02    7.74821221e+00   -4.94086367e+00        0.00425912     -0.00550150      0.01407093  
H      0.94001808     -1.07189516      2.95058127      6.84046666e+00    1.62094343e+01    4.28507503e+00        0.00475659     -0.00589997      0.01462497  
H      0.96646009     -1.08010189      2.89734154      1.42834736e+01   -4.14964624e+00   -1.28869034e+00        0.00495266     -0.00600481      0.01489858  
H      0.88054229     -1.05827287      2.92672619      6.61486526e+00    6.65577308e+00   -6.68857594e+00        0.00456775     -0.00589769      0.01537439  
H      0.90632558     -1.11859706      2.89810168      1.90809675e+00   -6.05731112e+00    3.39884853e+00        0.00530606     -0.00707366      0.01790668  
H      0.82951655     -0.99081217      2.88395140     -4.99742014e+00    1.10767305e+01    1.79775692e+00        0.00586116     -0.00781492      0.02087191  
H      0.84667612     -1.08926932      2.89092297      7.55408497e+00    6.38473251e+00   -8.58495053e+00        0.00435776     -0.00695528      0.01787662  
H      0.81510812     -1.22812296      2.90638227     -6.33778227e+00    7.61213691e+00    1.69421783e+00        0.00352789     -0.00626375      0.01595262  
H      0.86350851     -1.17310298      2.90645762     -1.01279414e+01   -8.48445295e+00   -1.97226242e+00        0.00313785     -0.00558361      0.01342825  
H      0.86457990     -1.14479334      2.87597388     -7.78201548e+00   -2.89571164e+00   -9.22290662e+00        0.00477595     -0.00744265      0.01822586  
H      0.95188797     -1.16716118      2.92095375      9.48902846e+00    9.24028546e+00   -1.64891684e+00        0.00338540     -0.00506958      0.01331767  
H      0.93425478     -1.28469105      2.92922299      2.42280054e+01    2.57569173e+00   -4.38198513e+00        0.00348291     -0.00559792      0.01430668  
H      0.92674632     -1.26286367      3.03630186      3.96740846e+00   -1.51666659e+00   -1.83617792e+01        0.00310588     -0.00489714      0.01261734  
H      1.01301089     -1.28830196      3.03843778      8.99931896e+00    1.05133370e+01    1.97042621e+00        0.00248388     -0.00382970      0.01000704  
