3
100000  xi=   0.02652125  Mean pot=  -106.93729402  Cent pot=  -109.09615819 kcal/mol
H      0.61445573      4.88126604     -0.27292815       0.24225453
H      0.25328239      5.39955024      0.05444913       0.19580906
H     -0.86773812    -10.28081628      0.21847901       0.19078871
3
200000  xi=   0.03426502  Mean pot=  -106.79985856  Cent pot=  -109.48446476 kcal/mol
H     -3.35854743      2.10403416      3.39316976       0.20102821
H     -2.81554549      1.79719445      3.78392780       0.19555449
H      6.17409292     -3.90122861     -7.17709757       0.18645585
3
300000  xi=   0.02378862  Mean pot=  -108.62432092  Cent pot=  -107.61147920 kcal/mol
H     -0.46080517     -4.31517829     -3.34718183       0.21131956
H     -0.59330017     -3.68658047     -3.12813834       0.18315376
H      1.05410534      8.00175876      6.47532016       0.23018127
3
400000  xi=   0.03540830  Mean pot=  -106.03451111  Cent pot=  -108.73964193 kcal/mol
H      4.34886741      0.59721997     -3.26641271       0.16042945
H      3.76434779      0.84889936     -2.80430047       0.19984294
H     -8.11321520     -1.44611932      6.07071318       0.17520105
3
500000  xi=   0.02663276  Mean pot=  -106.39638073  Cent pot=  -108.89506657 kcal/mol
H      0.74322664     -5.06474128     -1.18509189       0.20835387
H      0.34414356     -5.05320341     -0.51337659       0.16646139
H     -1.08737020     10.11794469      1.69846848       0.20433297
3
600000  xi=   0.03455988  Mean pot=  -103.83851480  Cent pot=  -108.93718316 kcal/mol
H     -3.87404495     -2.50812874      1.27291479       0.18671452
H     -4.61641052     -2.50060160      1.51194828       0.15301769
H      8.49045547      5.00873034     -2.78486307       0.23979471
3
700000  xi=   0.02249625  Mean pot=  -103.83674252  Cent pot=  -109.15466233 kcal/mol
H     -2.94849717      1.56412958      3.75402373       0.14576529
H     -3.61824580      1.71205175      3.55666967       0.17870209
H      6.56674298     -3.27618133     -7.31069340       0.24947141
3
800000  xi=   0.02507717  Mean pot=  -106.74898002  Cent pot=  -109.32912328 kcal/mol
H      0.22812506     -5.11017213      0.34716147       0.15422707
H      0.98578389     -5.13164543      0.26641944       0.18456003
H     -1.21390896     10.24181755     -0.61358091       0.21475276
3
900000  xi=   0.03213675  Mean pot=  -105.36679862  Cent pot=  -109.44507660 kcal/mol
H     -2.29921491     -1.47559445     -4.67646578       0.27207142
H     -2.45036750     -1.35643022     -3.97179255       0.17279816
H      4.74958242      2.83202467      8.64825832       0.14688158
3
1000000  xi=   0.02489807  Mean pot=  -107.18966589  Cent pot=  -109.39271629 kcal/mol
H     -3.63298976      3.50347185     -0.58999160       0.18476504
H     -3.35366758      4.06652291     -0.22668583       0.21103572
H      6.98665733     -7.56999476      0.81667743       0.14756844
3
1100000  xi=   0.03017496  Mean pot=  -104.74201961  Cent pot=  -109.15076095 kcal/mol
H      3.58736309      2.54559693     -3.25754675       0.16176297
H      2.87139705      2.47388540     -2.97921945       0.14568237
H     -6.45876015     -5.01948233      6.23676620       0.19181682
3
1200000  xi=   0.03182855  Mean pot=  -104.94932948  Cent pot=  -109.37421391 kcal/mol
H     -3.21525495     -0.18606032      3.52067737       0.19531301
H     -3.85243808     -0.30851705      3.91491346       0.14812088
H      7.06769303      0.49457738     -7.43559083       0.23639744
3
1300000  xi=   0.02357767  Mean pot=  -106.23213633  Cent pot=  -109.49729856 kcal/mol
H     -5.13283882     -0.85048728      0.71468154       0.19980781
H     -4.99706884     -0.22754670      1.09557213       0.20633441
H     10.12990766      1.07803397     -1.81025367       0.19828883
3
1400000  xi=   0.02679223  Mean pot=  -104.46280866  Cent pot=  -108.70741961 kcal/mol
H      2.02567602     -3.24409727     -3.15034027       0.19519519
H      1.57197667     -3.58554108     -3.69594559       0.18521464
H     -3.59765269      6.82963835      6.84628587       0.21748566
3
1500000  xi=   0.02524329  Mean pot=  -105.72227910  Cent pot=  -109.42685286 kcal/mol
H     -2.84717475      4.32068464     -1.00323013       0.18579242
H     -2.93306015      3.84225011     -1.58080460       0.25260333
H      5.78023490     -8.16293475      2.58403473       0.13940728
3
1600000  xi=   0.03495793  Mean pot=  -106.79827480  Cent pot=  -109.42805060 kcal/mol
H     -0.69697835      5.01493840     -0.13999678       0.21193088
H     -0.82169209      5.09388382      0.60021262       0.16119937
H      1.51867044    -10.10882222     -0.46021584       0.17621740
3
1700000  xi=   0.03161533  Mean pot=  -106.46253146  Cent pot=  -108.94161248 kcal/mol
H      2.77976965      4.64068437     -0.82939926       0.16007061
H      2.26487734      4.17374630     -0.70357541       0.14795008
H     -5.04464699     -8.81443067      1.53297467       0.16754039
3
1800000  xi=   0.03388580  Mean pot=  -106.94785919  Cent pot=  -109.37598178 kcal/mol
H     -0.35097390      5.09988282      1.50535874       0.24610922
H     -0.72189574      4.54358841      1.78514694       0.13953916
H      1.07286964     -9.64347123     -3.29050568       0.18044809
3
1900000  xi=   0.03006858  Mean pot=  -107.58463343  Cent pot=  -109.49315467 kcal/mol
H      1.22817853      3.96866629     -2.58067499       0.18269586
H      0.81269618      4.52773410     -2.84486901       0.12559626
H     -2.04087471     -8.49640039      5.42554400       0.18439473
3
2000000  xi=   0.02455870  Mean pot=  -106.00183749  Cent pot=  -106.79647602 kcal/mol
H     -2.04331790     -3.69951615     -3.17097848       0.25696924
H     -1.39416247     -3.80147864     -3.05458761       0.16844104
H      3.43748038      7.50099479      6.22556609       0.20771037
