3
100000  xi=   0.12772580  Mean pot=  -107.54644416  Cent pot=  -109.36313476 kcal/mol
H     -0.36321791      4.51515044     -0.05572950       0.19910588
H     -1.09700779      4.67745191      0.05752844       0.18871475
H      1.46022571     -9.19260235     -0.00179895       0.19078778
3
200000  xi=   0.11884272  Mean pot=  -106.97142872  Cent pot=  -109.27123485 kcal/mol
H      4.57464216      0.08538226     -0.27122595       0.16176579
H      4.80334739      0.43204626      0.31547764       0.18818352
H     -9.37798955     -0.51742852     -0.04425169       0.12745833
3
300000  xi=   0.13159147  Mean pot=  -107.01661048  Cent pot=  -109.36984692 kcal/mol
H     -1.55153563     -0.58364627      4.15836006       0.16292425
H     -2.30904087     -0.54315592      4.19636094       0.15084410
H      3.86057651      1.12680218     -8.35472100       0.19975293
3
400000  xi=   0.13636860  Mean pot=  -105.38002252  Cent pot=  -109.46154439 kcal/mol
H      0.59376904     -4.68645416     -1.19142414       0.18680746
H      1.00425151     -4.08025201     -1.21121191       0.14990129
H     -1.59802055      8.76670618      2.40263605       0.17545850
3
500000  xi=   0.13181337  Mean pot=  -106.77889868  Cent pot=  -109.49585056 kcal/mol
H     -2.96649531      2.89141297      2.16432364       0.19897000
H     -2.53854359      2.70264595      2.74262079       0.13950815
H      5.50503891     -5.59405891     -4.90694443       0.19291322
3
600000  xi=   0.13211872  Mean pot=  -106.61196656  Cent pot=  -108.84335963 kcal/mol
H      1.73553538     -4.09098489      0.36893327       0.14970644
H      1.29481189     -4.59536570      0.77476318       0.20461659
H     -3.03034727      8.68635060     -1.14369645       0.25154958
3
700000  xi=   0.13221839  Mean pot=  -106.37001619  Cent pot=  -109.46438390 kcal/mol
H     -1.12333186     -1.16599391      4.55266379       0.18898546
H     -1.50215417     -1.37559605      3.96150697       0.19905835
H      2.62548602      2.54158995     -8.51417076       0.18942310
3
800000  xi=   0.13060219  Mean pot=  -105.92124852  Cent pot=  -109.03128596 kcal/mol
H      3.08272972      3.60290609     -0.48416357       0.18244233
H      3.35686462      3.05910732     -0.00249837       0.19752821
H     -6.43959435     -6.66201341      0.48666194       0.20455231
3
900000  xi=   0.12612114  Mean pot=  -107.31244717  Cent pot=  -109.44150456 kcal/mol
H     -3.38611502      2.89675443     -1.49685771       0.18401508
H     -2.83420525      3.37296963     -1.45574845       0.14063163
H      6.22032027     -6.26972406      2.95260616       0.15728448
3
1000000  xi=   0.12497072  Mean pot=  -107.38963601  Cent pot=  -109.02130737 kcal/mol
H      2.42068021      1.99571111     -3.07610025       0.22336439
H      2.64615037      2.64295816     -3.25718727       0.24376246
H     -5.06683058     -4.63866927      6.33328753       0.21045879
3
1100000  xi=   0.12816855  Mean pot=  -107.22062268  Cent pot=  -109.24190422 kcal/mol
H     -1.80041736      3.33101979      2.36477218       0.21895248
H     -1.61383794      3.42101201      3.05164199       0.20752662
H      3.41425530     -6.75203180     -5.41641417       0.23011944
3
1200000  xi=   0.13089895  Mean pot=  -105.81760050  Cent pot=  -108.15052278 kcal/mol
H      2.77697933      2.67983332     -2.19591366       0.12656167
H      2.77738187      3.46041276     -2.01001930       0.17718871
H     -5.55436120     -6.14024608      4.20593297       0.17742597
3
1300000  xi=   0.13388102  Mean pot=  -106.29017537  Cent pot=  -109.33663623 kcal/mol
H     -3.49105041      3.16638958     -1.28362708       0.18931206
H     -3.05596028      2.67353778     -1.66846164       0.20472711
H      6.54701069     -5.83992736      2.95208872       0.20214533
3
1400000  xi=   0.12157717  Mean pot=  -106.48322238  Cent pot=  -109.13487745 kcal/mol
H     -0.62674322      3.26112091     -3.44118479       0.16472426
H      0.10467273      3.32135502     -3.20098265       0.16596291
H      0.52207049     -6.58247593      6.64216744       0.22978924
3
1500000  xi=   0.12673788  Mean pot=  -106.78007516  Cent pot=  -109.48119431 kcal/mol
H     -3.66244887     -2.59415257     -1.57178825       0.15481040
H     -3.56473434     -2.75651691     -0.84819788       0.16744463
H      7.22718321      5.35066948      2.41998613       0.16012821
3
1600000  xi=   0.13176274  Mean pot=  -106.61294106  Cent pot=  -109.49156101 kcal/mol
H      2.08320266     -1.65224171     -3.55814860       0.15744249
H      2.22602538     -1.21424513     -4.13440793       0.21937552
H     -4.30922804      2.86648684      7.69255653       0.26604868
3
1700000  xi=   0.13244555  Mean pot=  -106.60969724  Cent pot=  -109.44503076 kcal/mol
H     -1.33953694      1.69781634      4.48190182       0.16899756
H     -1.10226789      1.71350655      3.79120554       0.17252070
H      2.44180483     -3.41132289     -8.27310735       0.21110105
3
1800000  xi=   0.11797905  Mean pot=  -105.18118220  Cent pot=  -106.48705553 kcal/mol
H      2.03981355      2.78932998      2.83943992       0.18144978
H      1.86237463      3.03692845      3.42893925       0.21753636
H     -3.90218818     -5.82625843     -6.26837917       0.27117845
3
1900000  xi=   0.12064900  Mean pot=  -107.35412425  Cent pot=  -109.31410326 kcal/mol
H      2.81712539     -2.96761554      2.86032274       0.15066874
H      2.31140854     -2.45427005      2.83527328       0.19368033
H     -5.12853393      5.42188559     -5.69559602       0.17158003
3
2000000  xi=   0.13211906  Mean pot=  -105.44273050  Cent pot=  -107.91884257 kcal/mol
H      2.45013726      3.08030228     -2.38275688       0.20504457
H      2.20060690      3.59743452     -2.01151876       0.17556823
H     -4.65074416     -6.67773679      4.39427563       0.20690907
