96
100000  xi=   0.36139982  Mean pot=  -107.21541613  Cent pot=  -109.46813672 kcal/mol
H      1.15481099      3.08287489     -1.14113455     -3.18259132e+00   -1.06319900e+01   -3.99630409e+00      -19.25481782     -2.94159981    -26.32955465  
H      1.13028983      2.96517160     -1.07748063     -1.10498027e+01   -2.71609647e+00   -7.10915046e+00        7.24904315     -1.31149344     11.85239236  
H      1.21559108      2.96371362     -1.00364583     -1.42642877e+01   -4.22667879e+00   -8.97391919e+00       32.74489707     -7.87451031     58.05060865  
H      1.14974961      3.04050531     -0.96668319      4.40170202e-01    7.22318017e+00   -1.03362931e+01       33.60302935      4.07462702     66.42958092  
H      1.21848491      2.99330427     -0.92176822      5.11328681e+00    7.11376265e+00    4.22477944e+00       44.49658525     -1.73028540     86.02928993  
H      1.17256532      3.21509951     -1.01846384     -2.18110697e+00    6.43546790e+00    9.74423961e+00       39.13949280     12.51832173     61.96258468  
H      1.24698119      3.30819831     -1.20646508      7.30722539e+00   -1.02055595e+01   -3.86768094e+00       29.33679670      6.31019846     25.58246067  
H      1.27301332      3.29939593     -1.30603829     -2.85123040e+00   -1.15645566e+01   -7.70433788e+00       18.32320672      5.06005308      7.03171195  
H      1.28844236      3.23189148     -1.27244708     -1.03401282e+01    2.80273846e+00   -1.19641619e+01       46.00053566     11.27604385     17.64364977  
H      1.12779947      3.19837104     -1.20159475      4.99376768e+00    4.53396134e+00   -6.09822025e+00       37.09118070      0.76187381     18.02706135  
H      1.09800144      3.09385986     -1.25608358     -1.04967737e+01    3.60362430e+00    5.30412635e-01        3.38321008     -0.55181311      1.58017452  
H      1.01571830      3.17682375     -1.23649085     -1.10871545e+00    7.60200337e+00    1.21935032e+01      -28.27096926      2.35197043    -16.19298875  
H      0.92579004      3.22250435     -1.15668910      3.19215632e+00    4.85728059e+00   -8.37319864e+00      -26.23919370     -5.95777595    -17.04580054  
H      0.88186344      3.20341827     -1.16670075      1.54872792e+00    2.21546866e+00   -1.60130236e+01       20.98659569      4.74541241     17.44168425  
H      0.88186417      3.26012448     -1.06313893     -1.00262766e+01    2.04867706e+01    1.65207039e-02       58.23812269     23.74459090     55.78248615  
H      0.93655358      3.16639164     -1.03162614      4.88477359e+00   -3.78434231e+00    5.01405024e+00       39.88980357      9.04523994     39.10955004  
H      0.89549535      3.25420971     -1.11217783      2.58364168e+00   -6.51723883e+00   -6.22595306e+00      -67.74220974    -23.87117156    -76.31020221  
H      0.81534067      3.23810668     -1.01873197     -1.01063985e+01    7.78354917e+00    4.90622823e-01      -16.50675687     -8.14704016    -28.57316428  
H      0.94677566      3.18926407     -1.01320928     -4.69329387e+00   -1.46948263e+01    2.69406920e+00        9.38541733      4.17076773      9.42077503  
H      0.85749547      3.11882744     -0.97495358     -9.49922289e+00   -1.21361476e+01    2.40631326e+00      -10.23960439     -3.97357243    -15.18493923  
H      0.90428300      3.15998201     -0.96059932     -1.01669255e+00   -8.64790375e+00   -1.41278915e+01       27.93390231     14.08326924     32.21910586  
H      0.86987243      3.09837543     -0.95733708      1.54958243e+00    5.50747456e+00    8.19612079e+00       -6.22379737     -3.41448756     -9.96753261  
H      0.96672246      3.12888456     -0.94608205      1.08183151e+00    1.56991346e+00   -7.47864590e+00        3.16553521      1.63577603      5.30784282  
H      1.01956579      3.14871662     -0.90530009      3.84461834e+00    2.47046732e+00    1.13574193e+01        6.15746270      2.38938460      9.98193137  
H      1.09475357      3.13386604     -0.93417221     -5.56426909e-01    1.87713987e+01   -1.83370187e-01      -16.07367924     -6.04629445    -23.64149017  
H      1.13611207      3.11710055     -0.97030440     -1.90318455e-01    7.00096081e+00    9.26734233e+00       31.75731717      7.40897028     62.89208914  
H      1.12849980      3.23338841     -0.99753502     -7.99471035e+00   -4.30691218e+00   -5.76206733e-01       33.83816439      6.21394214     52.40301303  
H      1.14092406      3.09064604     -0.97156307      1.06295096e+01   -7.85230059e+00    3.76984994e+00       34.66492199     -4.81965327     55.03457500  
H      1.15226502      2.99103085     -1.06921672     -2.58116623e+00    1.53331895e+01    1.77265789e+01       29.61709613     -9.96327013     34.10600981  
H      1.18818990      2.90281544     -1.09720980      1.30074496e+01    1.16474954e+01    2.22179796e+00      -16.66000584      6.63461225    -15.79104719  
H      1.09937078      2.92095391     -1.07246924     -2.15685226e+00   -1.95344490e+00   -6.75696363e+00      -30.46321887     11.38043505    -31.41231642  
H      1.07776483      2.89460517     -1.13763133      1.47911359e+00   -4.12238266e+00   -8.49785655e-01      -24.01021633     11.64430727    -31.91979922  
H      0.73949089      3.01942538     -1.70905427      9.88404902e+00    1.16918258e+01   -6.85425173e+00       19.25482197      2.94161527     26.32954739  
H      0.73578692      3.03654536     -1.72250457     -8.68086028e+00   -1.62034718e+00    1.23069096e+01       -7.24903886      1.31150963    -11.85239981  
H      0.79726668      3.06431261     -1.74525725      5.41326097e-01    1.88019176e+00    9.61753331e-01      -32.74489265      7.87452649    -58.05061585  
H      0.75387168      2.99250214     -1.74929145      2.20295064e+00   -2.74073230e+00   -3.78566369e+00      -33.60302469     -4.07461070    -66.42958797  
H      0.77088123      3.01070979     -1.78716117     -6.47874384e+00    8.35623633e-01    1.27331230e+01      -44.49658056      1.73030193    -86.02929711  
H      0.71051324      3.06731749     -1.74994866      1.40917686e+00    5.26415652e+00    3.64592382e+00      -39.13948850    -12.51830557    -61.96259162  
H      0.65284194      3.18040207     -1.72457028      6.69552653e-02    4.71054219e+00    6.71731026e+00      -29.33679252     -6.31018239    -25.58246763  
H      0.57846445      3.10759273     -1.57257844      7.64191649e+00    1.75893490e+00   -7.51716604e-01      -18.32320301     -5.06003832     -7.03171831  
H      0.54261215      3.04906732     -1.55851266     -2.46350212e+00   -3.98446859e+00    1.70444779e+00      -46.00053165    -11.27602830    -17.64365638  
H      0.40676822      3.18356080     -1.55203055     -4.68634736e+00   -5.29639513e+00   -1.45335841e+00      -37.09117677     -0.76185797    -18.02706782  
H      0.42912914      3.20295685     -1.56849036      1.24980236e+01   -3.72038473e+00    4.24828216e+00       -3.38320598      0.55182907     -1.58018101  
H      0.40423734      3.22769501     -1.58673358     -1.40142325e+00    4.86556988e-01    3.36369189e+00       28.27097333     -2.35195379     16.19298194  
H      0.34312615      3.09020662     -1.53520567      2.30179589e+00   -9.08457805e+00   -1.50467476e+01       26.23919793      5.95779330     17.04579347  
H      0.29137451      3.06989930     -1.65744851     -1.24336234e+01   -7.42744122e+00   -4.06934661e+00      -20.98659131     -4.74539460    -17.44169163  
H      0.25084136      3.00284672     -1.66755444     -8.75115733e+00    8.92213151e+00    1.47056102e+00      -58.23811854    -23.74457310    -55.78249352  
H      0.34996245      3.03337888     -1.60674350      9.56789422e-01    6.29409469e+00    1.53497371e+01      -39.88979945     -9.04522253    -39.10955743  
H      0.47581655      3.10632218     -1.58493732     -8.94840138e+00   -9.80589699e+00    3.35374500e+00       67.74221394     23.87118840     76.31019485  
H      0.47283954      3.06906238     -1.61160060      2.27847054e+00   -5.03669810e+00    3.29695287e+00       16.50676140      8.14705861     28.57315583  
H      0.43534767      2.96199202     -1.52656435     -6.98291708e-01    4.89955746e-01   -1.93091008e+00       -9.38541249     -4.17074879     -9.42078352  
H      0.46381866      2.96605721     -1.55876081     -4.81763024e+00    7.67960270e+00   -2.38806692e+00       10.23960941      3.97359221     15.18493041  
H      0.40136107      2.90642702     -1.54067218      2.69271151e-01    4.03721425e+00    7.87589091e+00      -27.93389724    -14.08324901    -32.21911471  
H      0.49985245      2.89537527     -1.54993075     -1.25836238e+00    1.36021540e+00    1.00287080e+00        6.22380275      3.41450786      9.96752360  
H      0.59557834      2.93709849     -1.56840268      8.28756575e+00    5.57895161e+00   -8.62761191e+00       -3.16553001     -1.63575677     -5.30785122  
H      0.63024000      2.99764049     -1.53644102      2.69895584e+00    1.90553010e+01   -1.10855644e+01       -6.15745699     -2.38936463     -9.98194007  
H      0.70426993      2.98698104     -1.50850319      1.50177786e+00   -9.53958031e+00   -5.39414930e+00       16.07368473      6.04631337     23.64148199  
H      0.74723564      3.02637592     -1.74043413      1.46546751e+01   -1.06333063e+01   -8.98575724e+00      -31.75731230     -7.40895364    -62.89209648  
H      0.67170301      3.14950368     -1.70494725      1.30850148e+01   -5.46097460e+00   -1.23858176e+01      -33.83815978     -6.21392575    -52.40302020  
H      0.68780917      3.15364520     -1.69093549     -9.11683735e+00   -8.74494064e+00    2.98454217e+00      -34.66491701      4.81967063    -55.03458257  
H      0.63295450      3.16572847     -1.66723664      2.32187492e+00    1.00735900e+01   -8.26094964e-01      -29.61709130      9.96328760    -34.10601758  
H      0.68952977      3.10139951     -1.56986044     -6.98825555e+00    8.61641703e+00   -7.27024329e+00       16.66001064     -6.63459522     15.79103967  
H      0.63117274      3.09586296     -1.55525414      1.79791085e+01    7.52024478e-01    3.63361578e+00       30.46322353    -11.38041809     31.41230877  
H      0.67485952      3.09000320     -1.67326389      7.72384714e+00    6.01829515e+00   -1.39618989e+00       24.01022081    -11.64429058     31.91979157  
H     -1.55420870     -6.25610700      2.94113284      1.72380648e+01    5.36181273e+00    1.29934169e-01       -0.00000415     -0.00001546      0.00000726  
H     -1.50850583     -6.27179897      2.88448653     -3.41353233e+00   -1.14633037e+01   -2.87898836e+00       -0.00000428     -0.00001619      0.00000745  
H     -1.51807774     -6.29923078      2.79862249      4.75900820e+00    1.90545393e+01    4.44431262e+00       -0.00000442     -0.00001618      0.00000720  
H     -1.70452827     -6.30981037      2.67589043      3.01948169e+00    8.52083027e+00    2.67647235e+00       -0.00000466     -0.00001632      0.00000705  
H     -1.62939220     -6.29849080      2.70989835      4.09453199e+00   -1.01827563e+01    9.90765882e+00       -0.00000469     -0.00001653      0.00000718  
H     -1.55465946     -6.25702551      2.65747654      4.84969037e-01   -1.06716592e+01    6.15427440e+00       -0.00000429     -0.00001616      0.00000695  
H     -1.49683223     -6.16365246      2.60466335     -3.01500265e+00    5.35705781e+00    8.17405688e+00       -0.00000418     -0.00001608      0.00000695  
H     -1.49167581     -6.35868583      2.66705594      2.03117812e+00   -2.60186320e+00    4.42970903e-01       -0.00000371     -0.00001477      0.00000635  
H     -1.54660738     -6.34692709      2.60991785     -1.08677414e+01   -2.42187903e+00    2.86306685e+00       -0.00000401     -0.00001555      0.00000661  
H     -1.60515489     -6.35591505      2.52073605     -1.49857686e+01   -9.23278038e+00    3.27268099e+00       -0.00000394     -0.00001585      0.00000647  
H     -1.68630396     -6.37361211      2.46011340     -5.45291727e+00   -5.32964817e+00   -1.16757578e+00       -0.00000410     -0.00001596      0.00000649  
H     -1.61136442     -6.27668645      2.46350423     -1.00293149e+01   -1.58432614e+00    9.50217045e+00       -0.00000407     -0.00001664      0.00000681  
H     -1.66132939     -6.26203158      2.49558675      6.26985984e+00   -7.13599216e+00    1.03122225e+01       -0.00000424     -0.00001735      0.00000707  
H     -1.71034428     -6.21510406      2.46080762      1.20747771e+00   -1.84576531e+00    8.67167400e+00       -0.00000438     -0.00001781      0.00000737  
H     -1.62646305     -6.24896927      2.51590235     -7.56780308e+00   -1.11325713e+01    1.08925191e+01       -0.00000415     -0.00001780      0.00000737  
H     -1.57660331     -6.27000768      2.65415024     -5.24619285e+00   -2.57204361e+00   -7.04537032e+00       -0.00000412     -0.00001741      0.00000738  
H     -1.64613735     -6.16670572      2.73975916      6.67577338e+00    1.71420186e+00   -4.76017269e-01       -0.00000420     -0.00001683      0.00000736  
H     -1.60360030     -5.98164218      2.86856326      2.59405472e+00   -1.82381101e-01    1.97577041e+00       -0.00000454     -0.00001844      0.00000845  
H     -1.63098422     -6.03175771      2.81792005     -2.02974568e-01    5.74285331e+00   -3.17060565e+00       -0.00000484     -0.00001894      0.00000849  
H     -1.64140552     -6.01729801      2.76906301      6.55235521e+00    1.42098947e+01    6.03926053e+00       -0.00000502     -0.00001978      0.00000881  
H     -1.61498731     -6.02560266      2.71581861      1.39974009e+01   -6.14911532e+00    4.84358530e-01       -0.00000507     -0.00002023      0.00000885  
H     -1.70090808     -6.00349742      2.74513706      6.33378558e+00    4.65542435e+00   -4.93120347e+00       -0.00000539     -0.00002030      0.00000901  
H     -1.67505815     -6.06392000      2.71643217      1.60991143e+00   -8.06267331e+00    5.17346047e+00       -0.00000520     -0.00001926      0.00000841  
H     -1.75193979     -5.93594067      2.70224217     -5.27623247e+00    9.08450173e+00    3.55502304e+00       -0.00000571     -0.00001997      0.00000870  
H     -1.73468308     -6.03436392      2.70908748      7.25619533e+00    4.37171643e+00   -6.81932857e+00       -0.00000548     -0.00001893      0.00000818  
H     -1.76631092     -6.17331278      2.72461535     -6.62411404e+00    5.62855623e+00    3.45513489e+00       -0.00000488     -0.00001664      0.00000734  
H     -1.71789851     -6.11814517      2.72467244     -1.04201067e+01   -1.04982839e+01   -2.15858839e-01       -0.00000461     -0.00001639      0.00000717  
H     -1.71677816     -6.09007603      2.69420072     -8.07781098e+00   -4.89332472e+00   -7.44991484e+00       -0.00000498     -0.00001736      0.00000756  
H     -1.62957272     -6.11229813      2.73927954      9.20663091e+00    7.24160139e+00    9.85282219e-02       -0.00000483     -0.00001747      0.00000777  
H     -1.64710614     -6.22992125      2.74752131      2.39306929e+01    5.68912874e-01   -2.61481174e+00       -0.00000480     -0.00001703      0.00000751  
H     -1.65468681     -6.20823549      2.85469033      3.68904802e+00   -3.49591973e+00   -1.66143264e+01       -0.00000466     -0.00001695      0.00000765  
H     -1.56839884     -6.23354318      2.85682645      8.70338577e+00    8.49597098e+00    3.73122162e+00       -0.00000448     -0.00001668      0.00000765  
