96
100000  xi=   0.29780177  Mean pot=  -107.59254546  Cent pot=  -109.41544115 kcal/mol
H      1.49852241      3.70277373     -1.04264331     -1.43390948e+00   -9.00297660e+00   -2.21265985e+00       18.91400498   -111.13714971     26.32107672  
H      1.46806448      3.67558047     -1.04227770     -2.25367276e+00   -1.64453241e+00    4.97454800e+00        6.81945982    -32.82110642      9.67949569  
H      1.51930117      3.70393330     -1.06313136     -2.07451850e+00    1.05329536e+00    4.49521615e+00       -5.44044805     20.72455824     -8.61953016  
H      1.50953698      3.74646436     -1.01942416     -1.38920699e+00    4.35298170e+00   -4.56002276e+00       -5.35436946     44.88223881    -13.56998056  
H      1.52805014      3.72181753     -0.96234148      4.27454824e-01    3.66606558e+00    1.10582339e+01       -4.67522954     24.96309275     -4.19860429  
H      1.54787176      3.84238523     -1.02907967      5.83349182e+00    4.65754472e+00    1.21994311e+01        0.00849260      1.21215750     -0.33989295  
H      1.55482363      3.97462247     -1.12975671      9.42048726e+00   -1.19314803e+01   -4.74782503e+00        0.11815371     43.63732038    -13.49599505  
H      1.54950873      3.90292133     -1.17787919      8.44278889e+00    3.73862993e-01   -7.10516569e+00        2.29326343     40.96951701    -22.32567426  
H      1.44847266      3.86296929     -1.13560911      1.23635735e+00   -7.10471324e-03   -1.08560274e+01      -10.56965116     56.51136461    -26.17257410  
H      1.25778117      3.91652384     -1.05782262      6.26898330e+00   -2.57896150e+00   -1.93931474e+00      -16.46533103     55.50726285    -19.81778578  
H      1.26254238      3.87772196     -1.06450627     -8.79163332e+00    3.48738258e+00    5.51322288e+00      -13.86886296     51.04478658    -14.24105362  
H      1.22637288      3.92305000     -1.05535513      6.06066425e-01    7.00340178e+00    1.01902277e+01       -8.76738509     37.82473746     -9.93938401  
H      1.11148172      3.88009041     -1.00061015     -3.95402625e+00   -2.19314034e+00   -1.58898654e+01      -17.17323130     51.50818677    -14.91202447  
H      1.05917560      3.85405829     -0.99618194     -4.45493621e+00   -8.26470808e-01   -1.60659785e+01      -12.62135056     35.95048832     -3.80020785  
H      1.00920402      3.85811264     -0.94370249     -1.20020659e+01    2.37196974e+01    1.32251485e+01      -22.18583745     52.80862390     -4.65695233  
H      1.05224542      3.73370484     -0.85059766      3.39861580e+00    1.17886519e+01    8.41626532e+00       22.09543426    -32.93236279     -1.49085542  
H      1.18280158      3.85138795     -0.87690788     -1.73136725e+00   -1.44554839e+01   -2.92075866e+00       15.68706378    -48.17014427     -2.38509394  
H      1.18819984      3.86475694     -0.87098560     -8.06670789e+00    4.20661049e+00    9.17169435e+00       -0.51417626      3.16639826     -0.09704274  
H      1.33182068      3.74520158     -0.85513818     -1.07740039e+01   -5.88889468e+00   -1.00147310e+00       -9.71648657    -85.85891585     10.70747176  
H      1.29011185      3.77324632     -0.78643326      4.24099583e-01    2.13820905e+00    4.95759223e+00        1.77218789     26.82167668      1.72937268  
H      1.22624745      3.74857244     -0.81184699      6.69322051e+00    8.63601100e+00   -8.58125503e+00       -0.36345442      4.44634080     -0.19902435  
H      1.22508831      3.67838880     -0.85994428      7.87414547e+00    3.76549403e+00    1.19340880e+00        7.38944808    -39.25723560      7.16806747  
H      1.45058068      3.72413877     -0.93945656      4.97720675e+00    3.26096548e+00   -1.94377287e+00        2.40902098     12.77061904     -5.05548398  
H      1.49574108      3.79152979     -0.88998082     -5.20929534e+00    9.58958089e+00   -8.31048756e-01        6.85569346     38.37244383    -12.74554316  
H      1.53597577      3.75427292     -0.99208990      4.96340871e+00    9.19176292e-01   -4.68566514e+00        4.57199293     49.13469117    -31.71202221  
H      1.59027790      3.74507414     -1.05546240      1.34520804e+01   -2.36866008e+00    5.14036860e+00       -0.69041253     -5.08734121      2.39830686  
H      1.57642095      3.91264503     -1.02693531     -8.69178899e+00    2.81488352e+00   -1.24873642e-01        8.41050167     43.85698691    -15.22138168  
H      1.55513231      3.80234434     -0.91794092      1.04747479e+01   -1.21288399e+01   -7.08319149e+00       -6.40894345    -58.43772652      7.31195787  
H      1.53576818      3.79611073     -1.02815779     -5.15711738e+00    1.42603855e+01    9.37390179e+00        3.26699349     31.11543761     -9.58903691  
H      1.54473883      3.76696128     -0.98096187      1.53302340e+00    1.02744162e+01   -8.43157215e+00        0.33194250     68.89585423    -16.81632085  
H      1.43174265      3.79478110     -0.93445534      3.16557212e-01   -1.11672479e-01   -9.96098869e+00       -6.76731865     80.22541731    -13.76957909  
H      1.40400735      3.74211422     -1.01797888     -5.05292967e-01    8.34993515e+00   -9.89276135e+00      -10.76463964     57.43476456     -9.60447864  
H      1.60343277      3.08632903     -0.89664813      8.58687400e+00    1.05413275e+01   -8.48635808e+00      -18.91400110    111.13715878    -26.32107936  
H      1.60573562      3.01298836     -0.84686816     -1.70315273e+01   -2.21765560e+00    3.79758649e-01       -6.81945578     32.82111595     -9.67949839  
H      1.70124489      3.01084661     -0.77487036     -1.11999574e+01   -2.91704977e+00   -1.23561901e+01        5.44045205    -20.72454896      8.61952766  
H      1.60176088      2.97341075     -0.78569423      4.48183323e+00    6.02365329e-01   -9.40684583e+00        5.35437359    -44.88222951     13.56997817  
H      1.66904717      2.96897298     -0.83571870     -1.34812293e+00    4.76410013e+00    6.05363244e+00        4.67523366    -24.96308342      4.19860183  
H      1.54285894      3.12684607     -0.82844011     -6.15380844e+00    7.51958660e+00    1.34267181e+00       -0.00848860     -1.21214805      0.33989053  
H      1.55272847      3.20082058     -0.89043802     -1.60132777e+00    6.91153084e+00    7.75388439e+00       -0.11814971    -43.63731083     13.49599259  
H      1.50964924      3.19082498     -0.78983382     -3.20291585e+00   -9.69709085e+00   -1.19990056e+00       -2.29325987    -40.96950824     22.32567204  
H      1.59026627      3.10486013     -0.78449976     -1.35911638e+01   -7.01972420e-01    7.51859688e-01       10.56965489    -56.51135567     26.17257187  
H      1.48451268      3.15217577     -0.78492703     -5.51634270e+00    2.29805265e+00   -5.45885507e+00       16.46533467    -55.50725392     19.81778366  
H      1.47224074      3.10592061     -0.84918037      1.12444600e+01   -3.12763138e+00   -5.82121729e-01       13.86886667    -51.04477766     14.24105151  
H      1.40131599      3.16830090     -0.85702616     -2.67159727e+00    1.56113225e+00    5.52317801e+00        8.76738893    -37.82472799      9.93938176  
H      1.36510714      3.11938419     -0.78037973      9.89781927e+00   -1.55227503e+00   -7.37919495e+00       17.17323528    -51.50817699     14.91202216  
H      1.32175506      3.10613054     -0.91712097     -5.98185127e+00   -3.91290370e+00   -3.86045835e+00       12.62135464    -35.95047832      3.80020541  
H      1.33122147      3.09161929     -0.87610893     -6.32960902e+00    6.17133324e+00   -1.15852016e+01       22.18584143    -52.80861387      4.65694988  
H      1.44192522      3.15290254     -0.87689069      2.89434430e+00   -8.80333319e+00    1.21004408e+01      -22.09543047     32.93237241      1.49085299  
H      1.39624635      3.19596468     -0.90936046     -4.18902296e+00   -1.39070505e+00    2.04448122e-01      -15.68705989     48.17015378      2.38509141  
H      1.30764635      3.12918343     -0.84844210      6.89197325e-01   -9.78544841e-01   -5.23323096e+00        0.51418080     -3.16638726      0.09703962  
H      1.25800370      3.09292403     -0.77379260      5.82980646e+00   -7.84323701e+00    1.92087039e+00        9.71649141     85.85892747    -10.70747493  
H      1.23891506      2.99839391     -0.83639318     -1.42945747e+01   -6.11218767e+00   -4.78699542e+00       -1.77218287    -26.82166470     -1.72937598  
H      1.28705480      3.00468342     -0.77854954     -6.98955790e+00   -1.27720034e+01    2.48271877e+00        0.36345947     -4.44632874      0.19902116  
H      1.35237379      3.00217093     -0.73647212     -7.13865765e+00    3.58014866e+00    8.16108246e+00       -7.38944298     39.25724736     -7.16807058  
H      1.31938051      3.02862493     -0.66412464      4.84308811e+00    4.36831041e+00   -1.40114854e+01       -2.40901594    -12.77060730      5.05548101  
H      1.36177381      3.04169293     -0.64091985      1.21995607e+01    1.24092531e+01    1.25935340e+00       -6.85568806    -38.37243173     12.74554011  
H      1.47075260      3.05332678     -0.53969223     -3.57100128e+00    8.79546455e+00   -7.39967409e-01       -4.57198800    -49.13468018     31.71201954  
H      1.50073295      3.08525784     -0.74440763      1.46293177e+00   -7.89745765e-01   -4.70475806e+00        0.69041687      5.08735092     -2.39830938  
H      1.43151862      3.15704449     -0.76469011      1.42264001e+01   -1.21038150e+01   -1.26821179e+01       -8.41049740    -43.85697710     15.22137914  
H      1.48125700      3.12873807     -0.83365665     -8.51080935e+00   -3.98890211e+00    1.39888034e+01        6.40894794     58.43773666     -7.31196054  
H      1.45716800      3.04750828     -0.79745634      5.34386904e+00    1.16199746e+01    7.68313665e+00       -3.26698889    -31.11542701      9.58903407  
H      1.54067745      2.92400568     -0.77521057      4.93393737e+00    1.04723745e+01    3.53462268e+00       -0.33193802    -68.89584407     16.81631815  
H      1.50647024      2.90889830     -0.78240586      1.59558205e+01   -6.16416828e-01    6.99221528e+00        6.76732309    -80.22540717     13.76957628  
H      1.55635172      2.92928056     -0.88205348      1.01527351e+01   -5.97411041e+00    7.80129815e+00       10.76464390    -57.43475465      9.60447582  
H     -2.76187019     -6.94287378      2.03023791      1.67872656e+01    4.88021552e+00   -2.18151248e-02       -0.00000387     -0.00000907      0.00000264  
H     -2.71622186     -6.95865915      1.97362444     -3.85962691e+00   -1.19368424e+01   -3.03357209e+00       -0.00000404     -0.00000953      0.00000270  
H     -2.72577001     -6.98600636      1.88775653      4.31086515e+00    1.85736964e+01    4.29006648e+00       -0.00000400     -0.00000928      0.00000250  
H     -2.91220555     -6.99663331      1.76499809      2.57003811e+00    8.04407154e+00    2.52449938e+00       -0.00000413     -0.00000930      0.00000239  
H     -2.83711821     -6.98531972      1.79905378      3.64929762e+00   -1.06590073e+01    9.75156880e+00       -0.00000412     -0.00000933      0.00000245  
H     -2.76231946     -6.94379727      1.74657895      3.40344673e-02   -1.11528370e+01    6.00275541e+00       -0.00000400     -0.00000946      0.00000242  
H     -2.70455329     -6.85051340      1.69380619     -3.46066504e+00    4.88356615e+00    8.01905372e+00       -0.00000399     -0.00000955      0.00000246  
H     -2.69936132     -7.04545565      1.75618457      1.58244895e+00   -3.08320707e+00    2.89189323e-01       -0.00000356     -0.00000877      0.00000222  
H     -2.75429090     -7.03375922      1.69902968     -1.13166431e+01   -2.89785415e+00    2.71073870e+00       -0.00000374     -0.00000895      0.00000223  
H     -2.81287724     -7.04273467      1.60989005     -1.54313174e+01   -9.70983076e+00    3.11671370e+00       -0.00000364     -0.00000893      0.00000212  
H     -2.89396373     -7.06039024      1.54921410     -5.90386999e+00   -5.81027860e+00   -1.31894587e+00       -0.00000371     -0.00000892      0.00000211  
H     -2.81908944     -6.96354611      1.55265141     -1.04746320e+01   -2.05792506e+00    9.34679497e+00       -0.00000384     -0.00000947      0.00000226  
H     -2.86900850     -6.94879717      1.58470996      5.82057439e+00   -7.61770450e+00    1.01589114e+01       -0.00000397     -0.00000978      0.00000231  
H     -2.91803450     -6.90194454      1.54992422      7.59155375e-01   -2.32102037e+00    8.51893830e+00       -0.00000408     -0.00001000      0.00000244  
H     -2.83418071     -6.93577923      1.60505390     -8.01376103e+00   -1.16104512e+01    1.07367616e+01       -0.00000399     -0.00001003      0.00000245  
H     -2.78426424     -6.95679346      1.74325026     -5.69704472e+00   -3.05201823e+00   -7.19667690e+00       -0.00000379     -0.00000962      0.00000243  
H     -2.85386519     -6.85356217      1.82890989      6.23069622e+00    1.24033705e+00   -6.31703390e-01       -0.00000389     -0.00000951      0.00000253  
H     -2.81127360     -6.66840518      1.95768115      2.14426892e+00   -6.64312663e-01    1.82291896e+00       -0.00000455     -0.00001101      0.00000312  
H     -2.83868129     -6.71860532      1.90704181     -6.50705303e-01    5.26822468e+00   -3.32378963e+00       -0.00000484     -0.00001161      0.00000317  
H     -2.84911759     -6.70409831      1.85821115      6.10591540e+00    1.37311880e+01    5.88379488e+00       -0.00000502     -0.00001198      0.00000330  
H     -2.82265067     -6.71239702      1.80491900      1.35467623e+01   -6.62834092e+00    3.33020411e-01       -0.00000505     -0.00001206      0.00000319  
H     -2.90863744     -6.69034899      1.83429050      5.88883889e+00    4.18114259e+00   -5.08712364e+00       -0.00000510     -0.00001177      0.00000311  
H     -2.88272645     -6.75068239      1.80554518      1.15969738e+00   -8.54466027e+00    5.02103400e+00       -0.00000504     -0.00001174      0.00000297  
H     -2.95964359     -6.62279411      1.79136938     -5.72338148e+00    8.61038616e+00    3.40136662e+00       -0.00000540     -0.00001210      0.00000305  
H     -2.94238885     -6.72115505      1.79823150      6.80921659e+00    3.89221613e+00   -6.97443378e+00       -0.00000492     -0.00001099      0.00000267  
H     -2.97397788     -6.86011644      1.81371720     -7.07444104e+00    5.15014204e+00    3.30366788e+00       -0.00000434     -0.00000970      0.00000251  
H     -2.92562805     -6.80499033      1.81382759     -1.08650375e+01   -1.09731204e+01   -3.71927845e-01       -0.00000427     -0.00000981      0.00000255  
H     -2.92444245     -6.77683969      1.78330940     -8.52836799e+00   -5.37519871e+00   -7.60196989e+00       -0.00000448     -0.00001014      0.00000267  
H     -2.83728293     -6.79915585      1.82841221      8.76003256e+00    6.76785099e+00   -5.56011363e-02       -0.00000460     -0.00001061      0.00000283  
H     -2.85480524     -6.91670405      1.83666057      2.34831405e+01    8.86916126e-02   -2.76950528e+00       -0.00000448     -0.00001016      0.00000269  
H     -2.86235847     -6.89504879      1.94379463      3.23912558e+00   -3.97349954e+00   -1.67660084e+01       -0.00000444     -0.00001015      0.00000281  
H     -2.77612725     -6.92038067      1.94598226      8.25835913e+00    8.02046705e+00    3.57509707e+00       -0.00000425     -0.00000991      0.00000282  
