96
100000  xi=   0.10824633  Mean pot=  -106.39597358  Cent pot=  -109.06163038 kcal/mol
H      0.18255879      4.78392067     -0.28518884      3.08693513e+00   -2.57798881e+00    3.41323965e+00       40.29621537      9.62912674     -1.72373596  
H      0.21236764      4.68178759     -0.26843478     -7.60420575e+00   -2.58497096e+00   -5.88554109e+00       72.22970606      6.88709623     -4.16902616  
H      0.29027459      4.68056805     -0.24895628     -1.57209756e+00    2.87946131e+00   -1.09972717e+00       74.85053563      4.59972607     -5.31692195  
H      0.23110065      4.76107670     -0.28785948     -7.70395437e-01    2.59590741e-01   -5.02036512e+00       79.74462063     19.30361969    -15.89298725  
H      0.25979308      4.75825265     -0.29952318     -2.68950443e+00    1.04218144e+01    8.58187646e+00       74.56054253     20.73488838    -18.07624562  
H      0.12841091      4.87180455     -0.38364784     -5.20639184e+00    6.76050530e+00    4.92865391e+00       20.29906663      5.41134490     -9.28039099  
H      0.05862778      4.99342518     -0.50116298      8.02801517e+00    2.21820332e+00    9.25967211e+00      -41.09942786    -17.11443076     30.03372330  
H      0.13536110      4.93664095     -0.52345155     -5.12913977e+00   -9.48153787e+00   -6.10217127e+00       64.43824302     16.55603401    -42.62340156  
H      0.13713202      4.86197927     -0.44690035     -1.26196581e+01    5.02581904e+00    9.50002484e-01       58.63211928     12.77325315    -29.31438388  
H     -0.01251514      4.97066084     -0.35330069     -3.65759200e+00   -4.75903381e+00   -5.28535931e+00       54.47670647     20.37601781    -19.36237531  
H     -0.01368095      4.80140023     -0.47812067      7.51676920e-01   -5.43626703e+00   -5.83831843e-01       63.53819582      2.25265977    -37.46914775  
H     -0.10098523      4.82874303     -0.44698228     -4.12154489e+00    4.52070969e+00    8.43874249e+00       28.53503508     -1.08815181    -15.95273960  
H     -0.18950606      4.79741223     -0.34548183      2.52658930e+00   -2.44737052e+00   -1.12024578e+01       -8.33943803     -0.03597695      3.94115149  
H     -0.12961255      4.76720603     -0.39224261      6.08178054e-01   -1.94747637e+00   -1.41084399e+01       81.97332735     -1.69108470    -25.58153382  
H     -0.22272597      4.82962146     -0.30769881     -6.82060367e-02    1.57653427e+01    2.12077178e+00       17.73627513      2.84192043     -4.80652919  
H     -0.21211141      4.79786562     -0.22258877      5.21675428e+00    4.81325930e+00    1.06130341e+01     -145.95913878    -28.48955204     29.27166846  
H     -0.14421790      4.92380760     -0.24548733      4.22175638e+00   -1.50304538e+01   -2.65677157e+00      -47.99015963    -15.37583534      7.91890883  
H     -0.13095833      4.85824992     -0.25158639     -1.36353719e+00    4.67474671e+00    2.52650976e+00       34.01434147      5.83169561     -8.34149150  
H     -0.06147124      4.93585588     -0.27844622     -3.61493196e-01   -8.78368406e+00   -1.60231693e+00       79.89751140     43.87084753    -32.83248008  
H     -0.20642142      4.90469428     -0.23225228     -1.13073241e+01   -1.13754735e+00   -1.73498905e+00       14.39995448     11.16023269     -6.11697389  
H     -0.21449075      4.83253085     -0.20116637     -8.34854323e+00   -3.73020362e+00   -1.61990173e+01      -41.19679440    -22.92032951     15.36816756  
H     -0.12200257      4.77008651     -0.24676438     -2.73871132e+00    1.19888924e+01    8.39591864e+00       36.07564622     13.87316681    -15.54698292  
H     -0.03489842      4.85436041     -0.30347793      4.66256012e+00   -1.65698089e+00   -5.46804110e+00       55.49756625     29.81179451    -33.27177400  
H     -0.06900763      4.84964751     -0.29047448      5.50971781e+00    3.27899137e+00   -2.76771723e+00        0.36238600      0.19046122     -0.31469285  
H      0.00806504      4.83728021     -0.29100965      3.70935320e+00    1.09979568e+01   -2.72200430e+00        2.57292989      1.34310066     -2.21474821  
H      0.08218991      4.79678056     -0.36384713      1.75719874e-01    7.54929433e+00    7.23861871e-01      -36.13992528    -10.47024551     20.22504519  
H      0.05300676      4.92868272     -0.38784604     -3.73283017e+00   -5.24042896e-01    3.57911601e+00        6.62731551      2.10625425     -4.16790410  
H      0.10792410      4.81820615     -0.27347118      7.07558434e-01   -3.50115560e+00    3.26129779e+00       -7.71497384     -1.25127006      2.19096171  
H      0.03986654      4.72577274     -0.41806527     -2.87247895e+00    5.73514817e+00    1.29934531e+01       -7.40923369     -0.19198212      5.07066493  
H      0.16006128      4.70274048     -0.28684204      5.08806527e+00    5.37514882e+00   -5.57955645e+00       33.78713873      5.48885198     -9.89038809  
H      0.11780564      4.70355133     -0.27996926      1.67900812e+01   -2.29986020e+00   -4.45695045e+00       63.66098675      8.68947455    -19.19050452  
H      0.09066807      4.66658877     -0.32603410      5.16069834e+00   -4.00972110e+00   -1.17208351e+01       11.51410511      1.08339527     -2.41136743  
H     -0.59701048      4.59763592     -0.25184151      3.12070526e+00    3.50084250e+00   -1.37265100e+01      -40.29621552     -9.62912447      1.72373582  
H     -0.65501292      4.59908294     -0.21837045     -1.26229973e+01   -1.87958174e+00    1.16187292e+01      -72.22970622     -6.88709392      4.16902603  
H     -0.58612733      4.62671128     -0.18670208     -1.26484017e+01   -5.36264403e+00   -6.38260049e+00      -74.85053578     -4.59972380      5.31692184  
H     -0.63624054      4.55112118     -0.11499964      2.92036330e+00    4.09157246e+00   -8.56060032e+00      -79.74462076    -19.30361740     15.89298716  
H     -0.57911529      4.52495673     -0.09614062      8.24603244e-01   -2.60411948e+00    8.90406153e+00      -74.56054267    -20.73488607     18.07624552  
H     -0.55409104      4.68986256     -0.07161945      3.94109574e+00    4.80268903e+00    8.99994016e+00      -20.29906678     -5.41134271      9.28039090  
H     -0.46751914      4.77432953     -0.11667707     -1.15102065e+00   -7.84136268e+00   -5.87594260e+00       41.09942770     17.11443294    -30.03372339  
H     -0.59260100      4.74960660     -0.04193282      9.42291390e+00   -4.61273058e-01   -1.82297500e+00      -64.43824317    -16.55603200     42.62340147  
H     -0.61483415      4.69816030     -0.07093876     -6.77520001e-01   -6.33797605e+00   -1.06691703e+01      -58.63211943    -12.77325106     29.31438380  
H     -0.76160583      4.69047715     -0.08705525      3.46559761e+00    3.86397349e+00   -1.73850671e+00      -54.47670663    -20.37601577     19.36237525  
H     -0.76795116      4.77465862     -0.03331953      7.56551238e-01    5.18377555e+00    5.90194438e+00      -63.53819597     -2.25265770     37.46914769  
H     -0.78776665      4.85493270     -0.06303164      1.11361613e+00    3.43947693e+00    7.65123794e+00      -28.53503525      1.08815391     15.95273954  
H     -0.85030297      4.79456141     -0.03319451      2.47111021e+00   -1.91742998e+00   -1.16853815e+01        8.33943786      0.03597912     -3.94115154  
H     -1.00590044      4.78528359     -0.11877819     -1.19871126e+01   -3.39416883e+00   -5.43406711e+00      -81.97332753      1.69108693     25.58153376  
H     -0.95325897      4.71256667     -0.10972443     -1.92084800e+01    1.35099939e+01   -1.06045622e-01      -17.73627533     -2.84191824      4.80652913  
H     -0.81013788      4.68113770     -0.10265635      1.32010553e-01   -2.43842385e+00    1.02909586e+01      145.95913859     28.48955424    -29.27166854  
H     -0.79317155      4.71588570     -0.13840278     -1.10848345e+01   -1.42146043e+00    3.16098499e-01       47.99015945     15.37583757     -7.91890893  
H     -0.88959438      4.72818321     -0.06554263     -6.95998186e+00   -2.06552444e+00    1.79445351e+00      -34.01434169     -5.83169315      8.34149137  
H     -0.86514987      4.49456477      0.05181140     -5.52469358e+00   -5.55023127e+00    2.90445146e+00      -79.89751161    -43.87084501     32.83247998  
H     -0.78095819      4.45941765      0.01180587     -3.50850108e+00   -3.45346259e+00    2.28106608e+00      -14.39995471    -11.16023011      6.11697378  
H     -0.78863171      4.51310064      0.01301278      7.10842372e+00   -1.01452325e+00    1.04877911e+01       41.19679418     22.92033209    -15.36816765  
H     -0.81696871      4.50283197      0.05273481      2.53117030e+00   -5.25053522e+00    1.33346586e+00      -36.07564643    -13.87316414     15.54698282  
H     -0.71154114      4.49088622      0.10218136      4.21188562e+00    8.66826593e+00   -1.01035061e+01      -55.49756644    -29.81179196     33.27177391  
H     -0.58992384      4.57586854      0.16188447      5.38635933e-01    1.81182006e+01    3.57748734e+00       -0.36238617     -0.19045854      0.31469277  
H     -0.51773984      4.56280393      0.16159707     -3.26258702e+00   -1.90144138e+00   -2.32724656e+00       -2.57293005     -1.34309809      2.21474813  
H     -0.50760844      4.62590765     -0.03377732      1.37959134e+01   -1.13147702e+01    9.88302879e-02       36.13992515     10.47024789    -20.22504529  
H     -0.56149616      4.73338514     -0.00138652      8.32402808e+00   -9.37386104e+00   -1.60117354e+01       -6.62731565     -2.10625195      4.16790400  
H     -0.58793823      4.70534607     -0.07585446      3.10762063e-01   -1.32334516e+01    4.02912315e+00        7.71497369      1.25127247     -2.19096180  
H     -0.56337666      4.71014188     -0.00522309      2.11731498e+00    1.95433759e+01    4.44374931e+00        7.40923353      0.19198454     -5.07066504  
H     -0.59104555      4.58072029     -0.06697323      4.33026188e-01    1.47527073e+01    1.06005915e+00      -33.78713888     -5.48884959      9.89038799  
H     -0.69602654      4.59246645     -0.03464083     -1.46070204e+00    9.66239378e-01    1.87478352e+00      -63.66098691     -8.68947216     19.19050440  
H     -0.64673329      4.59720463     -0.17160217      3.54292503e+00    5.77482688e+00    1.00034668e+01      -11.51410528     -1.08339290      2.41136730  
H      0.75452446     -9.53523930      0.62795129      1.77336439e+01    5.48809176e+00   -4.05359447e-01        0.00000016     -0.00000227      0.00000014  
H      0.80022532     -9.55105271      0.57127656     -2.91777913e+00   -1.13265512e+01   -3.41182778e+00        0.00000017     -0.00000231      0.00000013  
H      0.79063802     -9.57844135      0.48545075      5.25609250e+00    1.91875645e+01    3.90817637e+00        0.00000015     -0.00000228      0.00000011  
H      0.60421505     -9.58897138      0.36268355      3.51417542e+00    8.64957526e+00    2.14336483e+00        0.00000013     -0.00000229      0.00000009  
H      0.67932059     -9.57777759      0.39671171      4.59186733e+00   -1.00431711e+01    9.37281106e+00        0.00000014     -0.00000231      0.00000010  
H      0.75407645     -9.53615293      0.34429142      9.80301100e-01   -1.05458163e+01    5.61928827e+00        0.00000015     -0.00000220      0.00000009  
H      0.81189571     -9.44291933      0.29145547     -2.51897715e+00    5.49491203e+00    7.64104089e+00        0.00000016     -0.00000218      0.00000009  
H      0.81704228     -9.63788025      0.35388438      2.52805409e+00   -2.47023738e+00   -9.31847833e-02        0.00000015     -0.00000202      0.00000009  
H      0.76213512     -9.62610252      0.29670867     -1.03729732e+01   -2.29191261e+00    2.33016259e+00        0.00000015     -0.00000210      0.00000008  
H      0.70355688     -9.63519454      0.20755315     -1.44883475e+01   -9.09382468e+00    2.73750759e+00        0.00000016     -0.00000204      0.00000006  
H      0.62243446     -9.65273763      0.14692445     -4.95780077e+00   -5.20398169e+00   -1.70222876e+00        0.00000014     -0.00000207      0.00000006  
H      0.69736037     -9.55596403      0.15029908     -9.53301468e+00   -1.44554482e+00    8.96892235e+00        0.00000017     -0.00000210      0.00000006  
H      0.64739138     -9.54121032      0.18241462      6.76649531e+00   -7.00573174e+00    9.77612029e+00        0.00000018     -0.00000216      0.00000006  
H      0.59839679     -9.49429508      0.14759681      1.70237008e+00   -1.71445622e+00    8.13891734e+00        0.00000018     -0.00000223      0.00000006  
H      0.68224830     -9.52823859      0.20272286     -7.07035269e+00   -1.09944845e+01    1.03570521e+01        0.00000020     -0.00000219      0.00000006  
H      0.73213718     -9.54913439      0.34095734     -4.75125171e+00   -2.44628177e+00   -7.57967384e+00        0.00000019     -0.00000220      0.00000008  
H      0.66258442     -9.44599114      0.42655719      7.17233003e+00    1.85368339e+00   -1.00954416e+00        0.00000018     -0.00000223      0.00000010  
H      0.70512350     -9.26080609      0.55538971      3.09043263e+00   -5.33957661e-02    1.43979335e+00        0.00000021     -0.00000246      0.00000012  
H      0.67775496     -9.31096480      0.50470826      2.92079993e-01    5.87556858e+00   -3.70328301e+00        0.00000021     -0.00000252      0.00000011  
H      0.66730606     -9.29655472      0.45588637      7.04978655e+00    1.43468994e+01    5.50354606e+00        0.00000022     -0.00000259      0.00000010  
H      0.69375478     -9.30473366      0.40262177      1.44922078e+01   -6.02297176e+00   -4.96036401e-02        0.00000023     -0.00000258      0.00000009  
H      0.60781087     -9.28278789      0.43193871      6.83058057e+00    4.79534433e+00   -5.46504088e+00        0.00000021     -0.00000267      0.00000010  
H      0.63366877     -9.34307105      0.40325658      2.10602360e+00   -7.93480541e+00    4.63766563e+00        0.00000019     -0.00000255      0.00000009  
H      0.55679705     -9.21516407      0.38903027     -4.78097605e+00    9.21864158e+00    3.02235529e+00        0.00000017     -0.00000268      0.00000008  
H      0.57402937     -9.31360632      0.39591321      7.75355961e+00    4.50747994e+00   -7.35523923e+00        0.00000016     -0.00000257      0.00000008  
H      0.54243222     -9.45245118      0.41141481     -6.12939713e+00    5.75535742e+00    2.92148858e+00        0.00000013     -0.00000238      0.00000010  
H      0.59081797     -9.39743756      0.41147795     -9.92309494e+00   -1.03582021e+01   -7.50028514e-01        0.00000014     -0.00000230      0.00000010  
H      0.59195193     -9.36921641      0.38102243     -7.58196936e+00   -4.76636632e+00   -7.98548094e+00        0.00000014     -0.00000242      0.00000009  
H      0.67916137     -9.39153736      0.42606826      9.70212080e+00    7.37709949e+00   -4.34194998e-01        0.00000016     -0.00000243      0.00000011  
H      0.66160769     -9.50914811      0.43434869      2.44279422e+01    7.03332672e-01   -3.15086636e+00        0.00000015     -0.00000239      0.00000010  
H      0.65405674     -9.48738401      0.54148639      4.18372696e+00   -3.36824062e+00   -1.71476847e+01        0.00000016     -0.00000239      0.00000012  
H      0.74031557     -9.51283429      0.54363588      9.20058016e+00    8.63593279e+00    3.19671249e+00        0.00000017     -0.00000237      0.00000013  
