96
100000  xi=   0.73198117  Mean pot=  -107.34928855  Cent pot=  -109.46341537 kcal/mol
H     -0.32155018      0.27101337     -1.82866657      1.47104365e+00   -6.93374842e-01   -1.93508216e+01        0.48397619    -13.94282597    -17.60793938  
H     -0.33407969      0.22718492     -1.78327543     -6.79048517e+00   -1.69446433e+00    1.89880362e-01       -0.22429416      5.27023996      6.37899382  
H     -0.22150717      0.24365483     -1.74447170     -6.71746862e+00   -4.95688994e+00   -9.17812302e-03       -3.47667279     16.26258962     19.03614423  
H     -0.22957759      0.27583928     -1.70679933      6.75423742e+00   -7.64317486e-01   -8.56912758e+00      -23.79970102     49.73848341     61.63582484  
H     -0.18771228      0.17640759     -1.67345169      3.17914885e+00   -1.44087480e+00    1.13777512e+01        0.00241835     -0.00935758     -0.01316300  
H     -0.16443856      0.37793095     -1.76628281      9.77044712e-01    2.70374778e+00    1.62328848e+01       15.85565572    -20.62026977    -26.05482493  
H     -0.11503599      0.48506979     -1.83619630      2.72227448e+00   -1.13785133e+01    3.14431538e+00       24.70323866    -25.44573138    -31.41855527  
H     -0.14689147      0.40102014     -1.78597626     -1.28593306e+00   -1.44593738e+01   -3.80717087e+00       26.52797671    -33.96836705    -31.88430593  
H     -0.19850606      0.31983069     -1.70494730     -5.78014978e+00   -7.39729921e+00   -4.59666663e+00        2.65740552     -4.56446424     -3.08076478  
H     -0.35384431      0.39083762     -1.68431641      3.83193065e+00   -1.38900082e+01   -1.03309294e+00       -3.33978902      5.55694966      4.41659499  
H     -0.42694072      0.35116845     -1.68176508      1.45025250e+00   -4.59293993e+00    1.30291943e+01      -33.48269564     99.28785583     65.22799786  
H     -0.48324268      0.38561235     -1.71327903     -5.40155128e+00    1.86994444e+00   -9.92925377e-01       -8.83105753     29.08492909     21.15606495  
H     -0.45149683      0.36273990     -1.66555291      2.25858151e-01    8.35446552e+00   -6.04877093e+00       10.56701398    -13.98286344    -12.10253428  
H     -0.47269683      0.41561441     -1.78391793     -5.92331458e+00    2.83522831e-01   -9.33163256e+00       16.65074219    -13.78439178    -20.72775956  
H     -0.47612917      0.41508571     -1.77762614     -1.54169919e+01    8.17052638e+00    1.00005262e+01       36.27172681    -27.15550087    -48.15042800  
H     -0.47184521      0.38968885     -1.65793981     -2.82808290e+00    1.15648779e+01    1.02656636e+01      -38.24655124     40.00632429     56.14494178  
H     -0.51101111      0.39284471     -1.77466389     -3.94994038e+00   -1.51142940e+01   -4.87546869e+00       10.88569796    -33.42129629    -44.04698959  
H     -0.50887187      0.45103871     -1.68460433     -2.14154977e-01    7.32637955e+00    1.05009668e+01      -25.94856642     33.83299604     56.11380422  
H     -0.37478306      0.42585711     -1.67342107     -4.02560577e+00   -4.55978857e+00    7.39320538e+00       11.48999248     -5.93088715    -16.45698598  
H     -0.46476534      0.38780639     -1.63260182     -1.16786109e+01   -3.48106569e+00   -3.86672436e+00      -47.59796075     35.76904426     83.05692869  
H     -0.42681405      0.35482191     -1.56653990     -7.35928458e+00   -5.99480628e+00    4.98576237e+00      -68.10267231     47.49929663     74.06426802  
H     -0.32757981      0.35050757     -1.63489868      9.23966110e-01    9.82432524e+00   -6.50607985e-01       26.25161573    -10.48981238    -27.79028888  
H     -0.27728933      0.42585579     -1.60467925      1.70923466e+00    2.15197984e+00   -4.80555341e+00      -47.71791974     14.51853221     53.73156259  
H     -0.18149742      0.36946491     -1.56056004      2.20664125e+00    1.86169956e+01   -8.31952332e-01       24.18064649    -14.57658574    -21.31032008  
H     -0.05553388      0.31155735     -1.53279999     -5.97932591e-01    1.10161049e+01   -1.15285393e+01       53.94416265    -34.90044554    -35.21216458  
H     -0.05007766      0.33787574     -1.65067434      1.53390355e+01    8.07196497e+00   -5.59573439e-01       25.16778039    -17.05176597    -17.12141541  
H     -0.02785156      0.37633237     -1.68951378      8.78773244e+00   -1.12374170e+01   -1.30140839e+01       70.06423098    -55.10967349    -47.57189172  
H     -0.15382164      0.30399260     -1.65204298      1.96548203e+00   -5.30584553e+00   -3.29732310e+00       26.23966536    -34.87456563    -27.58424054  
H     -0.14127326      0.35060617     -1.66573543     -5.87771891e+00    1.32463445e+01    1.11174439e+01       -7.61814408      5.86565314      6.14282656  
H     -0.12349411      0.25952655     -1.67653932      8.23397088e-01    1.21660087e+01   -8.06728751e-01        9.03108518     -8.49636579    -10.17508277  
H     -0.22646197      0.23795039     -1.66129377      6.09636076e+00    1.38767482e+00    4.91995075e+00        9.92343635    -12.30688439    -13.19008635  
H     -0.27669251      0.24877661     -1.77471145      8.75808564e+00    1.80437363e-01    9.90153195e-02       -7.81036135     12.77651975     16.87777035  
H     -0.33818355      0.74984725     -1.22402883      4.71045995e+00   -2.97148181e-04    9.45321790e+00       -0.48698574     13.94702616     17.59792939  
H     -0.35387058      0.69312043     -1.21912320     -1.34652314e+01   -4.41273511e+00    5.93771477e+00        0.22093688     -5.26586684     -6.38953197  
H     -0.31966087      0.70284576     -1.20687284     -7.52627745e+00    8.48365155e-01   -7.04039166e+00        3.47299359    -16.25754189    -19.04799778  
H     -0.42083645      0.67555225     -1.21143139     -4.63500265e+00    3.47464876e+00   -4.60914400e+00       23.79565795    -49.73252139    -61.64979396  
H     -0.37690781      0.74596722     -1.23772664     -5.07006035e+00    7.61254603e+00    6.54108662e+00       -0.00641513      0.01508325     -0.00068461  
H     -0.50646329      0.82273455     -1.20435921     -2.26912464e+00    7.23194584e+00   -1.89338842e+00      -15.86024057     20.62636021     26.04130352  
H     -0.53907429      0.92185837     -1.29697595      4.12592033e+00    4.09710324e+00    6.56752343e-01      -24.70766793     25.45137215     31.40580056  
H     -0.55553592      0.92428032     -1.29490898      5.55582503e+00    2.88583886e+00   -3.68637108e+00      -26.53165442     33.97340169     31.87340342  
H     -0.52434435      0.87942536     -1.32814786     -7.55003215e+00    4.42878967e+00   -4.71633534e+00       -2.66128949      4.56976741      3.06861903  
H     -0.66547084      0.90940373     -1.27145427     -4.04603319e+00    1.13518252e+01   -5.55011643e+00        3.33522203     -5.55090074     -4.42947213  
H     -0.59982996      0.86386264     -1.34490336      2.58706756e-02    2.69724680e+00   -7.30365314e+00       33.47817007    -99.28160423    -65.24159550  
H     -0.65069047      0.93717595     -1.31194036      2.36983511e+00    4.44052205e+00    1.75102462e+01        8.82617432    -29.07882259    -21.16932852  
H     -0.83348734      0.86819849     -1.22837009      4.74487470e+00   -1.43518803e+01   -1.64186463e+01      -10.57255088     13.98935728     12.08800783  
H     -0.90800376      0.77599727     -1.24218374     -5.48628497e+00   -7.27839647e+00   -9.79102669e+00      -16.65676461     13.79107148     20.71281404  
H     -0.94510674      0.76620061     -1.15513567     -3.88266742e+00    1.94665512e+01   -7.55808796e+00      -36.27817425     27.16227704     48.13566880  
H     -0.79564355      0.72838510     -1.18256196      8.14632911e+00   -1.08333443e+01    1.10490536e+01       38.24179261    -40.00117004    -56.15686671  
H     -0.67168380      0.88611794     -1.12462003     -2.93425671e+00   -2.97248346e+00    2.95721886e+00      -10.89055933     33.42719480     44.03386159  
H     -0.75697549      0.77453063     -1.14804520     -8.13943283e+00   -6.35664061e+00   -5.76140420e+00       25.94434673    -33.82889441    -56.12475897  
H     -0.79714170      0.64388437     -1.06861901     -1.88596188e+00   -1.14166316e+01   -5.66686525e+00      -11.49550859      5.93609796     16.44295640  
H     -0.76795343      0.61564573     -1.10351753     -3.16104339e+00   -2.74608519e+00    4.83266392e+00       47.59270051    -35.76415219    -83.07055300  
H     -0.82159321      0.63016448     -1.13715989      6.09266724e+00   -3.84913451e-01   -1.02732827e+01       68.09714832    -47.49426184    -74.07863652  
H     -0.85672588      0.56196138     -1.07483821     -1.15505096e+00   -4.72440644e+00    1.08006800e+01      -26.25805931     10.49561687     27.77359188  
H     -0.71444360      0.55885416     -1.11238265      7.13436427e+00    3.22136675e+00   -1.03350416e+01       47.71236436    -14.51288623    -53.74711563  
H     -0.72271823      0.69574201     -1.08373756      3.81636931e+00    1.14743187e+00    2.05776000e+00      -24.18692191     14.58325550     21.29146952  
H     -0.69945129      0.72816997     -1.11258992      1.01549298e+00   -3.56229070e+00    6.90666636e+00      -53.94993645     34.90737383     35.19301665  
H     -0.62060207      0.72444548     -1.26270676     -1.39753025e+00   -1.34605389e+01    1.79839356e+00      -25.17181036     17.05742849     17.10665442  
H     -0.72594467      0.92543596     -1.21561051     -4.22567232e+00   -3.08524390e-01    9.97764535e-01      -70.06888596     55.11605824     47.55574174  
H     -0.57145890      0.85906507     -1.21312711     -9.78107330e-01   -1.30591620e+01    1.10175934e+01      -26.24431754     34.88073243     27.56839523  
H     -0.62752774      0.72496074     -1.27324783      5.09488405e+00    1.03913655e+01    6.72276652e+00        7.61400667     -5.86076981     -6.15602914  
H     -0.55279500      0.66342856     -1.19311459      4.67001766e+00    6.32750978e+00   -3.28555139e+00       -9.03550883      8.50197791     10.16093607  
H     -0.59703001      0.69752191     -1.16892605      9.20721975e+00   -4.34628512e+00   -7.09859247e+00       -9.92746182     12.31178611     13.17748452  
H     -0.52469928      0.65448652     -1.23866895     -8.39722700e-02   -6.45053893e-02   -1.39780494e+00        7.80680011    -12.77231106    -16.88849035  
H      0.99983475     -1.17463989      3.14359186      1.77573421e+01    7.11295091e+00   -8.18913693e-01        0.00300955     -0.00420019      0.01000999  
H      1.04549695     -1.19039724      3.08693062     -2.88638739e+00   -9.69169644e+00   -3.81146979e+00        0.00335728     -0.00437312      0.01053814  
H      1.03598052     -1.21771620      3.00106053      5.27699159e+00    2.08175307e+01    3.48201158e+00        0.00367920     -0.00504773      0.01185354  
H      0.84947732     -1.22816621      2.87812154      3.54593437e+00    1.02905095e+01    1.73494202e+00        0.00404308     -0.00596203      0.01396912  
H      0.92461102     -1.21688746      2.91219224      4.61851941e+00   -8.40194176e+00    8.94284509e+00        0.00399677     -0.00572567      0.01384761  
H      0.99932243     -1.17524252      2.85965629      1.00499188e+00   -8.91044530e+00    5.20923620e+00        0.00458485     -0.00609045      0.01352141  
H      1.05708174     -1.08199669      2.80683805     -2.48733858e+00    7.14486917e+00    7.21935504e+00        0.00442927     -0.00564078      0.01275471  
H      1.06226022     -1.27700179      2.86931132      2.54930844e+00   -8.33592055e-01   -5.18409447e-01        0.00367771     -0.00503464      0.01090251  
H      1.00726566     -1.26520100      2.81203727     -1.03384383e+01   -6.37113361e-01    1.91773537e+00        0.00388397     -0.00530318      0.01214574  
H      0.94875010     -1.27425921      2.72292116     -1.44661575e+01   -7.45404032e+00    2.30088353e+00        0.00456699     -0.00604892      0.01287715  
H      0.86759234     -1.29179219      2.66215784     -4.92736286e+00   -3.55367532e+00   -2.11010204e+00        0.00452557     -0.00625160      0.01359764  
H      0.94251046     -1.19497837      2.66554271     -9.50653685e+00    1.95698944e-01    8.53828869e+00        0.00488321     -0.00610649      0.01326357  
H      0.89259906     -1.18025608      2.69759266      6.79065504e+00   -5.36612646e+00    9.36161926e+00        0.00553690     -0.00649384      0.01452645  
H      0.84356147     -1.13338063      2.66275362      1.73501242e+00   -6.43769828e-02    7.71251646e+00        0.00602242     -0.00667969      0.01494552  
H      0.92750483     -1.16731644      2.71800377     -7.04786066e+00   -9.35797957e+00    9.93431642e+00        0.00644745     -0.00677617      0.01475920  
H      0.97739028     -1.18827533      2.85623395     -4.72191013e+00   -7.96913876e-01   -7.99212054e+00        0.00475864     -0.00515425      0.01192494  
H      0.90786162     -1.08516393      2.94197549      7.19588755e+00    3.48021316e+00   -1.43407971e+00        0.00486136     -0.00589851      0.01312799  
H      0.95045151     -0.90003259      3.07084957      3.11762318e+00    1.59387955e+00    1.02642896e+00        0.00421969     -0.00410163      0.01095474  
H      0.92303142     -0.95023204      3.02018993      3.19808559e-01    7.51344933e+00   -4.13408169e+00        0.00551612     -0.00521082      0.01402958  
H      0.91265712     -0.93589372      2.97149294      7.07258975e+00    1.59829380e+01    5.08941249e+00        0.00526024     -0.00489207      0.01362431  
H      0.93904702     -0.94414411      2.91820196      1.45180639e+01   -4.38318458e+00   -4.76243341e-01        0.00552399     -0.00503479      0.01436850  
H      0.85312102     -0.92224716      2.94765587      6.85621746e+00    6.42591245e+00   -5.88657857e+00        0.00644358     -0.00580450      0.01669700  
H      0.87899504     -0.98263047      2.91897153      2.13403153e+00   -6.28857343e+00    4.21106107e+00        0.00555538     -0.00564598      0.01555305  
H      0.80205077     -0.85478633      2.90481179     -4.75300505e+00    1.08454848e+01    2.59993807e+00        0.00627543     -0.00666976      0.01885056  
H      0.81935747     -0.95326751      2.91181798      7.78123439e+00    6.15173442e+00   -7.77635581e+00        0.00577380     -0.00692829      0.01914793  
H      0.78769436     -1.09212287      2.92721819     -6.09935089e+00    7.38179388e+00    2.50132802e+00        0.00402997     -0.00566251      0.01476099  
H      0.83610547     -1.03705571      2.92736452     -9.89229006e+00   -8.71726943e+00   -1.16588392e+00        0.00465498     -0.00638475      0.01614998  
H      0.83724953     -1.00882008      2.89682872     -7.55371399e+00   -3.12748966e+00   -8.41203707e+00        0.00465219     -0.00616681      0.01584532  
H      0.92441972     -1.03110864      2.94183176      9.73259863e+00    9.01092252e+00   -8.43124128e-01        0.00413741     -0.00488333      0.01320257  
H      0.90693543     -1.14867894      2.95011139      2.44536415e+01    2.34081953e+00   -3.57153039e+00        0.00442365     -0.00561212      0.01414671  
H      0.89932224     -1.12685886      3.05715378      4.21000684e+00   -1.74149711e+00   -1.75561863e+01        0.00402548     -0.00490172      0.01260183  
H      0.98562848     -1.15223373      3.05936005      9.23126720e+00    1.02790405e+01    2.77985610e+00        0.00356124     -0.00420870      0.01072000  
