3
100000  xi=   0.60874882  Mean pot=  -106.64452128  Cent pot=  -109.49150626 kcal/mol
H      0.06386843      1.26558000     -2.06958036       0.22775333
H     -0.51982470      1.29249035     -1.60634109       0.19091983
H      0.45595627     -2.55807035      3.67592145       0.19078931
3
200000  xi=   0.61091205  Mean pot=  -104.12015195  Cent pot=  -109.35014070 kcal/mol
H     -1.42261340     -0.75395493     -1.12621176       0.23368098
H     -2.09783086     -1.01264187     -1.12921756       0.19900322
H      3.52044427      1.76659679      2.25542931       0.20127583
3
300000  xi=   0.60976932  Mean pot=  -107.36990908  Cent pot=  -107.97883181 kcal/mol
H     -0.34015999      2.29240073      0.20837746       0.21996525
H      0.32021984      2.12099582      0.26705465       0.18757169
H      0.01994015     -4.41339656     -0.47543211       0.14866493
3
400000  xi=   0.61192519  Mean pot=  -106.69788958  Cent pot=  -109.20075635 kcal/mol
H      0.45197105      2.00678274      1.15124869       0.17295747
H     -0.14105828      1.99443568      0.75096646       0.15112961
H     -0.31091278     -4.00121842     -1.90221515       0.17286512
3
500000  xi=   0.61372530  Mean pot=  -106.52973098  Cent pot=  -108.91150763 kcal/mol
H     -0.02865165     -1.91506924     -0.42230406       0.14052478
H     -0.44539334     -2.54876512     -0.23654288       0.17276471
H      0.47404499      4.46383436      0.65884694       0.23507746
3
600000  xi=   0.60370170  Mean pot=  -106.93266019  Cent pot=  -109.44539378 kcal/mol
H     -0.86521937     -2.06754610     -0.64704968       0.18854645
H     -0.71957398     -2.12004204      0.08991785       0.16660171
H      1.58479335      4.18758813      0.55713182       0.16182160
3
700000  xi=   0.61493559  Mean pot=  -106.70994441  Cent pot=  -109.46951368 kcal/mol
H      1.74037554     -0.09689040      1.21176376       0.18919858
H      1.57363833      0.43058444      1.69322334       0.17247509
H     -3.31401387     -0.33369404     -2.90498710       0.26962499
3
800000  xi=   0.61391822  Mean pot=  -107.13081838  Cent pot=  -108.90821848 kcal/mol
H      1.48322654      1.25743447     -1.52336738       0.22071571
H      1.55791400      0.70877980     -1.08640192       0.10846738
H     -3.04114055     -1.96621427      2.60976930       0.18245459
3
900000  xi=   0.62083630  Mean pot=  -106.22188079  Cent pot=  -109.39629882 kcal/mol
H     -1.53503430      0.68389696     -1.02723900       0.17935134
H     -1.53293571      1.26611939     -1.51197611       0.19547390
H      3.06797001     -1.95001634      2.53921511       0.21437529
3
1000000  xi=   0.61278224  Mean pot=  -104.58179573  Cent pot=  -104.07009859 kcal/mol
H     -0.76372355      0.84190514     -1.65214684       0.13075888
H     -1.35773017      1.04173138     -1.78045096       0.22083581
H      2.12145372     -1.88363653      3.43259780       0.14036138
3
1100000  xi=   0.60545794  Mean pot=  -104.39477780  Cent pot=  -108.57021878 kcal/mol
H      2.18556138     -0.72095252      0.28771935       0.16011063
H      2.09043346     -0.16386373      0.69497030       0.20101218
H     -4.27599485      0.88481626     -0.98268964       0.15454945
3
1200000  xi=   0.60627596  Mean pot=  -105.59849016  Cent pot=  -109.21238732 kcal/mol
H     -0.37197628      1.51555172     -1.23912233       0.21715487
H     -0.12100343      1.82078715     -1.89843866       0.22737020
H      0.49297970     -3.33633888      3.13756099       0.16319717
3
1300000  xi=   0.60451434  Mean pot=  -105.66460165  Cent pot=  -109.43840302 kcal/mol
H      2.01628138      0.27804585     -0.83122000       0.12692695
H      2.35586863      0.10287077     -0.20948145       0.13362137
H     -4.37215001     -0.38091662      1.04070145       0.17226162
3
1400000  xi=   0.60528167  Mean pot=  -106.69212448  Cent pot=  -109.12385853 kcal/mol
H      1.59419601     -1.09396154     -1.24023697       0.20486354
H      1.09314721     -1.58781331     -1.12738443       0.14894733
H     -2.68734322      2.68177484      2.36762140       0.19060908
3
1500000  xi=   0.61348719  Mean pot=  -105.93569097  Cent pot=  -108.92100856 kcal/mol
H      0.13385255      2.41130517      0.04078341       0.16162964
H      0.65240136      1.96420746      0.41552326       0.14677179
H     -0.78625391     -4.37551263     -0.45630667       0.18237562
3
1600000  xi=   0.61191004  Mean pot=  -106.67735528  Cent pot=  -109.39902663 kcal/mol
H      2.29648862     -0.96235129      0.09246378       0.19580411
H      1.66859044     -1.08672683      0.43588307       0.15029298
H     -3.96507906      2.04907812     -0.52834685       0.14749208
3
1700000  xi=   0.61646876  Mean pot=  -105.80095642  Cent pot=  -108.51450092 kcal/mol
H      1.21823126     -1.89086070     -1.35706697       0.20219253
H      0.70400115     -1.30358927     -1.21685437       0.17109930
H     -1.92223240      3.19444997      2.57392135       0.20501412
3
1800000  xi=   0.61339230  Mean pot=  -107.55056782  Cent pot=  -108.60025234 kcal/mol
H      0.94419230      0.89987701      1.57263473       0.14118255
H      0.58810294      1.36868900      1.94631691       0.21806112
H     -1.53229524     -2.26856601     -3.51895164       0.25409372
3
1900000  xi=   0.61190588  Mean pot=  -107.65598328  Cent pot=  -109.41425072 kcal/mol
H     -0.18601246      0.13900215     -2.22078773       0.20668849
H     -0.38043423      0.81591215     -2.03803661       0.16903727
H      0.56644669     -0.95491430      4.25882434       0.19984454
3
2000000  xi=   0.60284016  Mean pot=  -105.84790748  Cent pot=  -107.16593079 kcal/mol
H      1.41797798     -0.16212649     -1.90155025       0.18390028
H      0.81403059     -0.44914169     -1.97037761       0.15439054
H     -2.23200857      0.61126818      3.87192787       0.21061030
