96
100000  xi=   0.43016260  Mean pot=  -104.52213124  Cent pot=  -109.19793951 kcal/mol
H      0.94190521      2.70831152     -1.85036770      1.83536250e+00    1.09790926e+01    8.86203468e+00       38.09534641      9.39276264    -15.27737310  
H      0.88852221      2.61774974     -1.81341985     -7.14798727e+00   -2.13445471e-01   -2.31617820e+00      -28.16569121     -4.28648318     11.63815299  
H      1.00395202      2.64925421     -1.78277588     -2.03761409e+00   -3.83878746e+00   -2.95775134e+00       30.85020182      5.70374506    -10.85280789  
H      0.96051267      2.59550108     -1.77030641     -4.87880133e+00    3.24209603e+00   -1.04814133e+01       38.17071840      1.15602356    -13.43249928  
H      1.01133379      2.58711723     -1.68452674     -3.25299488e+00   -1.74292960e-01    7.26881299e+00       26.56812887      1.21136318     -3.48753169  
H      0.85840881      2.69639712     -1.74247832     -6.06864010e+00    7.27455752e+00    3.15628785e+00     -199.98900051      8.66355468     55.14949022  
H      0.85568326      2.81804740     -1.89089969      6.58312994e+00   -5.93010210e-01   -1.00949743e+00     -132.67261753     -2.99202600     70.53370772  
H      0.80063954      2.79977923     -1.91598921     -1.79926258e+00   -2.06306885e+00   -7.87681395e+00     -105.90969422    -12.49842726     85.73943561  
H      0.84772901      2.79338677     -1.80967607     -5.40048220e+00    6.31053345e+00   -7.98099206e+00      -72.75432666    -20.63570698     27.73131393  
H      0.74864765      2.91340913     -1.70048909     -1.87799826e-01    4.95966817e+00   -8.05202780e+00       19.86216875      8.79054374     -2.50759525  
H      0.78323517      2.83130160     -1.78066467      3.30788650e+00   -8.23269209e+00    1.43020121e+00       51.82275333     15.39052730    -11.85629255  
H      0.79756106      2.89218869     -1.80231026     -6.07987344e+00    3.83614627e-01    5.78724679e+00       90.50846054     24.27691044    -22.06257735  
H      0.64970594      2.80584997     -1.77205274      7.10660340e+00   -3.96660762e+00   -1.37684539e+01       54.24362621     11.57906905    -20.71213132  
H      0.64268022      2.81277761     -1.89391342      3.41505487e+00   -5.01358280e+00   -1.33735784e+01       83.99717615     21.46762052    -40.01380928  
H      0.57504297      2.84949386     -1.82558134     -9.84382021e+00    1.74242013e+01    1.00456921e+01       66.19260412     26.39585308    -31.70681205  
H      0.69803810      2.79320750     -1.78987238      3.89099053e+00   -3.68676889e+00    5.38917656e+00       83.56821373     24.81822218    -37.72464303  
H      0.79838589      2.90681359     -1.81039693     -6.73358581e+00   -1.20838370e+01    4.11737677e+00       94.83959726     31.32497365    -35.92733469  
H      0.68046283      2.84176567     -1.73587037     -2.56427071e+00   -3.01648259e+00   -1.34224975e+00       71.42503465     21.27308368    -24.89672102  
H      0.64197599      2.83518105     -1.76432134     -6.34637946e+00   -2.61432641e+00    8.51522576e+00       50.76174054     30.49471176    -34.13908877  
H      0.66629198      2.81367015     -1.73016048     -1.23382494e+01   -5.68046365e+00    7.40481833e+00       71.15690033     38.72524193    -34.94552381  
H      0.60260033      2.79346789     -1.71624671     -9.58434723e+00   -4.43617811e+00   -5.05191917e+00       43.33980625     26.22491079    -25.32473370  
H      0.69530179      2.70156147     -1.72049807      3.80922996e+00    1.25408825e+01    9.72974053e+00       66.47372119     24.04756115    -32.85820124  
H      0.70786770      2.66068150     -1.69677268      1.12717279e+01    7.11652251e+00   -6.73276202e+00      -51.60941765    -10.50776135     27.95646792  
H      0.75703510      2.65613332     -1.67169336     -5.44569667e+00   -5.92274254e-01    1.98744155e+00      -41.09564469     -2.10256487     23.40666995  
H      0.79191213      2.56057123     -1.71285535     -3.25719909e+00    1.11701746e+01   -9.01873917e+00      -42.26450315     10.91143344     34.32731229  
H      0.85875023      2.57397540     -1.77022638      5.66889455e+00   -5.32095379e+00    6.61022592e-01      -97.49331028     22.28900421     46.17248295  
H      0.83030629      2.71829337     -1.77780555     -2.74530799e+00   -6.81112924e+00    6.68677580e+00      -65.94847812      8.98175759     32.45768159  
H      0.87043422      2.66707144     -1.72003391     -7.74736715e+00    3.54084081e+00    5.94555732e+00      -51.64713253      3.59872328     17.37671559  
H      0.82939576      2.60727346     -1.84150146     -4.98966239e-01    1.10682496e+01    5.76204442e+00      -10.23299628      1.29551483      6.49195912  
H      0.93051707      2.57306568     -1.80979497      1.81429401e+00    8.71809485e+00   -1.07081267e+01       45.05389842      0.42733551    -24.60333931  
H      0.84133358      2.58404635     -1.76261046     -2.99009931e+00   -3.45325611e+00   -5.57422883e+00       18.17528306      0.42548265     -8.92197576  
H      0.85779285      2.57233180     -1.83357986      3.06369466e+00   -9.04171675e+00   -4.55430434e+00       13.97127678      0.49810760     -5.93172724  
H      0.21505628      2.52910026     -1.55887962      4.60834311e+00   -1.05664080e+01   -1.95737256e+01      -38.09534254     -9.39273726     15.27735675  
H      0.24024444      2.51908936     -1.54554929     -1.28430439e+01   -4.77106942e+00    7.64636042e+00       28.16569531      4.28650930    -11.63816968  
H      0.27161399      2.51385597     -1.52514644     -1.19472931e+01    8.47524598e-01   -4.91892768e+00      -30.85019747     -5.70371839     10.85279131  
H      0.20575603      2.57264307     -1.50470327      7.26521401e+00    5.91013100e-01   -3.50370921e+00      -38.17071322     -1.15599632     13.43248277  
H      0.24076253      2.55198376     -1.58337603      1.62369882e+00    7.47863168e+00    9.82062260e+00      -26.56812361     -1.21133582      3.48751492  
H      0.28732313      2.72113660     -1.58499422      5.03949176e+00    3.77745191e+00    1.03728688e+01      199.98900525     -8.66352787    -55.14950641  
H      0.30683824      2.80566982     -1.59911319      5.29956705e-01   -5.54964199e+00    3.99101701e+00      132.67262185      2.99205235    -70.53372366  
H      0.31353867      2.74229631     -1.52165558      6.32867763e+00   -8.38759160e+00   -4.43000412e-01      105.90969786     12.49845197    -85.73945018  
H      0.24597759      2.62270868     -1.58031020     -7.66024846e+00   -8.14160925e+00   -2.14261015e+00       72.75433053     20.63573324    -27.73132942  
H      0.04865049      2.60360652     -1.61211469      2.31361658e-01   -6.36688656e+00    6.32425396e-01      -19.86216519     -8.79051667      2.50757962  
H      0.00654388      2.60063685     -1.60296906     -1.56343069e+00    7.46786306e+00    3.48747483e+00      -51.82274936    -15.39049998     11.85627692  
H     -0.11489903      2.64744136     -1.57988667      3.30795171e+00    7.05777767e+00    9.90141949e+00      -90.50845683    -24.27688183     22.06256092  
H     -0.11809778      2.64195154     -1.47887824     -1.87320419e+00   -9.06072140e-01   -9.51453770e+00      -54.24362239    -11.57903970     20.71211453  
H     -0.20678433      2.59567534     -1.48925327     -1.45575625e+01   -8.47650659e-01   -6.57343558e+00      -83.99717249    -21.46758933     40.01379136  
H     -0.17960857      2.54855887     -1.46409693     -9.19735635e+00    1.13400922e+01   -8.42607848e+00      -66.19260123    -26.39582138     31.70679390  
H     -0.14887720      2.54168929     -1.40755507      1.69407982e+00    5.54804612e+00    1.51134452e+01      -83.56821054    -24.81819204     37.72462534  
H     -0.16436043      2.58882407     -1.44568739      1.06405775e-01   -4.88599590e+00   -6.85840392e+00      -94.83959383    -31.32494401     35.92731675  
H     -0.12959934      2.60049850     -1.45350594     -5.52347204e+00    5.11753999e+00    5.26743816e+00      -71.42503110    -21.27305328     24.89670169  
H      0.00281221      2.45120828     -1.33446068      6.96570581e-01   -1.22396290e+01   -7.61748868e+00      -50.76173745    -30.49467344     34.13906553  
H     -0.08225220      2.40629487     -1.36254648     -2.24208164e+00    5.79397945e-01   -7.25337803e+00      -71.15689725    -38.72520367     34.94550024  
H     -0.03431337      2.40807121     -1.34407898      8.58059952e+00   -8.23327022e-01   -1.06154677e+00      -43.33980340    -26.22487012     25.32470926  
H     -0.06285722      2.42728951     -1.34573730     -3.78097547e+00   -6.31943009e+00   -3.99714097e-01      -66.47371718    -24.04752468     32.85817891  
H      0.11710783      2.54040177     -1.37676208     -2.16140982e+00   -6.13891310e-01   -9.23532528e+00       51.60942240     10.50779339    -27.95648734  
H      0.15544341      2.62535408     -1.32904728      1.17303638e+01    2.14692302e+01   -1.58178816e+00       41.09565060      2.10259764    -23.40668999  
H      0.26983243      2.69535640     -1.28882110      3.93946998e+00   -2.58287994e+00    3.57515116e+00       42.26450939    -10.91140229    -34.32733146  
H      0.28724018      2.70463442     -1.49956122      8.53914880e+00    1.03954049e+00   -2.41360290e-01       97.49331600    -22.28897653    -46.17250017  
H      0.23262120      2.79969409     -1.48364445      7.57221861e+00   -3.60255627e+00   -1.95177551e+01       65.94848333     -8.98173052    -32.45769825  
H      0.22096576      2.71232558     -1.50151966      9.00165450e+00   -2.07847733e+01    9.47427105e-01       51.64713819     -3.59869458    -17.37673328  
H      0.21850493      2.68461239     -1.45394314     -1.99592791e-02    1.36900536e+01    1.12715071e+01       10.23300142     -1.29548640     -6.49197696  
H      0.20991779      2.56623100     -1.41628531      3.94234062e+00    1.09012103e+01    5.79438685e+00      -45.05389336     -0.42730721     24.60332188  
H      0.15185421      2.56790613     -1.42415555      1.85559172e+01    1.60258989e+00    2.58837988e+00      -18.17527827     -0.42545502      8.92195836  
H      0.15755977      2.54736752     -1.53628515      5.87557952e+00    1.02922316e+01    2.43954641e+00      -13.97127235     -0.49808084      5.93171006  
H     -0.81687197     -5.39117816      3.50014834      1.74961336e+01    6.00548184e+00   -5.22010946e-03       -0.00000387     -0.00002538      0.00001635  
H     -0.77119992     -5.40692579      3.44350341     -3.15280273e+00   -1.08148295e+01   -3.01425419e+00       -0.00000410     -0.00002612      0.00001669  
H     -0.78077535     -5.43434732      3.35762996      5.02003592e+00    1.97021271e+01    4.30984249e+00       -0.00000435     -0.00002668      0.00001659  
H     -0.96718918     -5.44488822      3.23491212      3.27735469e+00    9.16508992e+00    2.54079013e+00       -0.00000518     -0.00002724      0.00001650  
H     -0.89211057     -5.43364302      3.26890572      4.35735178e+00   -9.53207447e+00    9.77319320e+00       -0.00000526     -0.00002737      0.00001677  
H     -0.81731898     -5.39209251      3.21649342      7.42717364e-01   -1.00283345e+01    6.01900571e+00       -0.00000474     -0.00002681      0.00001619  
H     -0.75953220     -5.29878668      3.16367866     -2.75377091e+00    6.00619306e+00    8.03890549e+00       -0.00000432     -0.00002636      0.00001593  
H     -0.75436745     -5.49379351      3.22606431      2.29169003e+00   -1.95502901e+00    3.08429351e-01       -0.00000364     -0.00002470      0.00001457  
H     -0.80927251     -5.48201176      3.16893931     -1.06095165e+01   -1.77701932e+00    2.72739146e+00       -0.00000387     -0.00002625      0.00001548  
H     -0.86787246     -5.49106450      3.07974263     -1.47230212e+01   -8.58233129e+00    3.13828026e+00       -0.00000355     -0.00002706      0.00001562  
H     -0.94896081     -5.50867668      3.01913154     -5.19540016e+00   -4.68651331e+00   -1.30296178e+00       -0.00000397     -0.00002732      0.00001562  
H     -0.87406976     -5.41182717      3.02251790     -9.76762313e+00   -9.34618056e-01    9.36714506e+00       -0.00000372     -0.00002861      0.00001643  
H     -0.92401474     -5.39713035      3.05459613      6.52984158e+00   -6.48990002e+00    1.01775830e+01       -0.00000381     -0.00002935      0.00001678  
H     -0.97301428     -5.35019634      3.01982847      1.46613105e+00   -1.20022485e+00    8.53602193e+00       -0.00000366     -0.00003119      0.00001792  
H     -0.88917848     -5.38411426      3.07490837     -7.30522067e+00   -1.04824857e+01    1.07581639e+01       -0.00000289     -0.00003171      0.00001816  
H     -0.83925847     -5.40507152      3.21316949     -4.98881200e+00   -1.92895598e+00   -7.18087698e+00       -0.00000319     -0.00003014      0.00001769  
H     -0.90884724     -5.30185184      3.29877132      6.93787695e+00    2.36438100e+00   -6.10908818e-01       -0.00000343     -0.00002964      0.00001794  
H     -0.86627939     -5.11673262      3.42757406      2.85350807e+00    4.63009577e-01    1.84100046e+00       -0.00000355     -0.00003040      0.00001933  
H     -0.89365972     -5.16685836      3.37694022      5.61665461e-02    6.38912620e+00   -3.30620031e+00       -0.00000309     -0.00003832      0.00002324  
H     -0.90411767     -5.15243724      3.32806892      6.81466827e+00    1.48594946e+01    5.90491454e+00       -0.00000307     -0.00003827      0.00002357  
H     -0.87764202     -5.16066745      3.27483883      1.42547464e+01   -5.50593395e+00    3.48756394e-01       -0.00000285     -0.00004067      0.00002443  
H     -0.96362163     -5.13864741      3.30414774      6.59622105e+00    5.30595230e+00   -5.06596280e+00       -0.00000401     -0.00003648      0.00002232  
H     -0.93773128     -5.19900283      3.27544442      1.86885289e+00   -7.41793977e+00    5.03855109e+00       -0.00000475     -0.00003203      0.00001942  
H     -1.01462132     -5.07105016      3.26126139     -5.01656633e+00    9.73151879e+00    3.41952597e+00       -0.00000591     -0.00003277      0.00002005  
H     -0.99739111     -5.16949646      3.26809359      7.51815074e+00    5.02072614e+00   -6.95369656e+00       -0.00000624     -0.00003114      0.00001917  
H     -1.02896650     -5.30838049      3.28363632     -6.36668968e+00    6.27195955e+00    3.31948215e+00       -0.00000572     -0.00002768      0.00001721  
H     -0.98061482     -5.25329771      3.28368184     -1.01574359e+01   -9.84755138e+00   -3.50499111e-01       -0.00000521     -0.00002706      0.00001666  
H     -0.97944597     -5.22515238      3.25321454     -7.81933480e+00   -4.24917351e+00   -7.58495298e+00       -0.00000567     -0.00002871      0.00001769  
H     -0.89226049     -5.24741644      3.29829761      9.46683637e+00    7.88936791e+00   -3.68545567e-02       -0.00000514     -0.00002843      0.00001784  
H     -0.90980927     -5.36504610      3.30652793      2.41922111e+01    1.21724054e+00   -2.74922144e+00       -0.00000506     -0.00002830      0.00001743  
H     -0.91734452     -5.34330763      3.41371183      3.94664663e+00   -2.85215096e+00   -1.67500020e+01       -0.00000479     -0.00002763      0.00001740  
H     -0.83111682     -5.36869656      3.41583479      8.96618412e+00    9.14675613e+00    3.59667619e+00       -0.00000443     -0.00002677      0.00001718  
