3
100000  xi=   1.02509995  Mean pot=   -98.14135057  Cent pot=  -101.47660706 kcal/mol
H      0.25899969     -0.77144814      0.64179598       0.16741952
H     -0.02334435      0.15171848     -0.00853069       0.21908645
H     -0.23565534      0.61972966     -0.63326529       0.19607647
3
200000  xi=   1.02193221  Mean pot=  -100.10464519  Cent pot=   -99.03729606 kcal/mol
H      0.43962491      0.88566004     -0.48020582       0.19328149
H      0.04409006     -0.11751346      0.07191997       0.20349906
H     -0.48371497     -0.76814658      0.40828586       0.16777591
3
300000  xi=   1.02561235  Mean pot=   -97.98780212  Cent pot=  -100.99376484 kcal/mol
H      0.13650869     -1.04146318     -0.24049029       0.18796758
H      0.06548097      0.14868062     -0.03466929       0.20642494
H     -0.20198966      0.89278255      0.27515958       0.19886560
3
400000  xi=   1.03045334  Mean pot=  -100.36679237  Cent pot=  -102.10953250 kcal/mol
H     -0.34750653      0.68172310      0.75217918       0.24519101
H      0.09045607     -0.16315818     -0.02659424       0.16756942
H      0.25705046     -0.51856492     -0.72558493       0.10989428
3
500000  xi=   1.03272821  Mean pot=   -98.62405507  Cent pot=  -100.86406491 kcal/mol
H      0.51381504     -0.70191485     -0.55081690       0.21082676
H     -0.24498606      0.14364739     -0.05363719       0.22641201
H     -0.26882898      0.55826746      0.60445409       0.20383899
3
600000  xi=   1.01996715  Mean pot=   -99.93571270  Cent pot=  -100.86618564 kcal/mol
H      0.75021214      0.41191611      0.50054451       0.16788437
H     -0.06651296     -0.07793778     -0.02662936       0.20096447
H     -0.68369918     -0.33397833     -0.47391515       0.11746343
3
700000  xi=   1.03426853  Mean pot=  -100.05199555  Cent pot=  -102.33103178 kcal/mol
H      0.06302786      1.14402445     -0.12349516       0.15790469
H      0.00324710     -0.16385914     -0.02269012       0.16119176
H     -0.06627497     -0.98016531      0.14618528       0.15583762
3
800000  xi=   1.02696078  Mean pot=  -101.68558734  Cent pot=  -101.21602746 kcal/mol
H     -0.96221023      0.41946192      0.27733221       0.28377192
H      0.15648973      0.04533813     -0.04911481       0.19426645
H      0.80572050     -0.46480005     -0.22821740       0.14569851
3
900000  xi=   1.02545204  Mean pot=   -99.73148658  Cent pot=  -100.88048754 kcal/mol
H      0.45807249      0.85914425      0.33564076       0.23661020
H      0.07627775     -0.18558263     -0.04938180       0.16050332
H     -0.53435024     -0.67356162     -0.28625896       0.18253224
3
1000000  xi=   1.01315844  Mean pot=   -96.52609702  Cent pot=   -97.69004546 kcal/mol
H      0.65697559     -0.27706060      0.54627606       0.25415052
H     -0.05665200     -0.03971988     -0.06077774       0.13980300
H     -0.60032359      0.31678048     -0.48549832       0.14229764
3
1100000  xi=   1.02490581  Mean pot=   -99.70758094  Cent pot=  -101.31394013 kcal/mol
H     -0.74711893     -0.33881415      0.61795782       0.24485632
H      0.02111968      0.06070256     -0.14900269       0.15195182
H      0.72599925      0.27811159     -0.46895512       0.18362530
3
1200000  xi=   1.03036958  Mean pot=   -99.41715780  Cent pot=  -101.03968759 kcal/mol
H      0.05462502      1.01794567      0.22108316       0.18512887
H      0.10870884     -0.14040799     -0.19360019       0.15997452
H     -0.16333386     -0.87753767     -0.02748297       0.13473553
3
1300000  xi=   1.02137514  Mean pot=   -99.45748694  Cent pot=   -99.65456085 kcal/mol
H      0.38901778      0.88177590     -0.44883954       0.26807029
H     -0.04509485     -0.03130909      0.16414495       0.18447181
H     -0.34392293     -0.85046681      0.28469458       0.16386245
3
1400000  xi=   1.01322512  Mean pot=   -98.20210547  Cent pot=   -98.54556704 kcal/mol
H     -0.95380326      0.02540393     -0.30313913       0.21613601
H      0.09189742     -0.14816452     -0.04143960       0.18517524
H      0.86190584      0.12276059      0.34457873       0.17873603
3
1500000  xi=   1.03075781  Mean pot=   -98.73712659  Cent pot=  -101.50794136 kcal/mol
H      0.50970034     -0.34571596     -0.93957906       0.15057550
H     -0.07458533     -0.04793411      0.15638734       0.21673335
H     -0.43511502      0.39365007      0.78319173       0.20447714
3
1600000  xi=   1.02606109  Mean pot=   -98.49276138  Cent pot=   -99.38603693 kcal/mol
H     -0.47313308      0.40438663      0.92646038       0.19772931
H      0.12553386     -0.13409515     -0.03743460       0.16228575
H      0.34759921     -0.27029148     -0.88902577       0.15936394
3
1700000  xi=   1.01763765  Mean pot=  -100.08206802  Cent pot=  -100.01755467 kcal/mol
H      0.15059726     -0.60138803     -0.82467718       0.20035578
H      0.05626720      0.11187586      0.04044578       0.16834421
H     -0.20686446      0.48951217      0.78423141       0.17885296
3
1800000  xi=   1.02751865  Mean pot=   -93.71202021  Cent pot=  -101.90484795 kcal/mol
H      0.11650102      0.14742600     -1.04486965       0.18648472
H     -0.08548903     -0.04955265      0.11910875       0.24265299
H     -0.03101199     -0.09787336      0.92576090       0.21771684
3
1900000  xi=   1.02375148  Mean pot=   -97.94522406  Cent pot=   -98.12091749 kcal/mol
H     -0.51638184      0.81433109     -0.46753474       0.16469085
H      0.03237643     -0.02034651      0.25317034       0.22342358
H      0.48400541     -0.79398457      0.21436439       0.24450867
3
2000000  xi=   1.01547887  Mean pot=   -99.72201653  Cent pot=  -100.11445129 kcal/mol
H      0.01716293      0.96649458      0.19964618       0.22576497
H     -0.10799801     -0.07776263     -0.01460701       0.16067647
H      0.09083508     -0.88873195     -0.18503917       0.15878827
