96
100000  xi=  -0.01175348  Mean pot=  -106.70020890  Cent pot=  -109.36296973 kcal/mol
H      0.61792575      5.39437037     -0.35129331      2.62866316e+00   -5.93594848e+00    3.16323539e+00        3.12760935     -6.25277282     18.36637701  
H      0.51841787      5.34810317     -0.26973271     -7.67404758e+00   -9.44588704e-01    1.44906207e+00       31.30069861    -26.00398715     61.38107454  
H      0.56540993      5.44489382     -0.25578033     -1.44468216e+01    6.30141677e+00    1.06433049e+00      -13.67908909     16.35393361    -23.57115387  
H      0.48143288      5.43206630     -0.23893674      1.31995952e+00    4.11206060e+00   -9.21608661e+00      -19.27745545     18.15259916    -28.27515262  
H      0.54820749      5.39159325     -0.21655532      2.09313297e+00    1.29028042e+00    1.03679616e+01        8.26184625     -7.61430558     12.87972024  
H      0.58781834      5.59838427     -0.29524101     -1.34070981e-02    2.00577567e+00    1.15736042e+01       -8.72247333     24.37242966    -34.25837216  
H      0.55328022      5.75496819     -0.35411542      1.07425450e+01    2.32139837e+00    1.52903403e+01      -19.61979978     44.36299618    -46.98973419  
H      0.52643056      5.70824094     -0.34847438      7.45007448e+00   -3.89067083e+00   -2.90846046e+00      -21.84847799     47.34523829    -54.75362828  
H      0.43320493      5.66886466     -0.29887867      4.92107947e-01    5.93454487e+00   -5.40691819e+00      -40.55176869     57.76711865    -56.57309594  
H      0.29666084      5.68359287     -0.24214437      9.64016127e-01   -4.01108756e+00   -6.36398635e+00      -31.49666747     41.83241682    -43.64813456  
H      0.32336487      5.60527015     -0.33150134     -2.05376342e+00    1.98988852e+00   -1.06898809e+01      -27.62505340     37.45941272    -54.06973445  
H      0.23530470      5.70308656     -0.30949413     -6.44183690e+00   -3.92164145e+00    4.45529947e+00      -37.82150667     50.76358971    -57.44482663  
H      0.17658633      5.58630674     -0.25917958      3.67994518e+00   -4.26755509e+00   -1.06941241e+01      -27.73144569     30.01130607    -48.21596537  
H      0.06897333      5.54130581     -0.33363737     -3.66064447e-01   -6.64451174e-01   -7.47554135e+00      -44.01387311     31.51636158    -59.41068333  
H      0.17813100      5.51512624     -0.28273585     -2.13911051e+01    2.16434615e+01   -3.59949715e+00       -4.59100116      6.11547423    -12.92437460  
H      0.15281726      5.46515481     -0.15191331      3.28440608e+00    1.23997557e+00    1.58057015e+01       19.22562887    -12.01449730     21.36560676  
H      0.11935118      5.58776048     -0.10059652     -2.35020947e+00    8.48497551e-01   -5.05672567e+00      -11.85242319      7.19860218     -6.52630239  
H      0.09599077      5.54913110     -0.11838452     -7.74273426e+00    1.28423045e+00    3.88606108e+00      -17.01833181     10.27982272    -13.14250029  
H      0.23333227      5.58889717     -0.01659864      2.84481119e+00   -1.80574768e+01   -1.58746807e+00       -2.76065291      4.22851972     -2.32976524  
H      0.22290735      5.57318357     -0.02110997     -1.40871322e+01    3.81159358e+00    7.07689281e-01       -7.32662786     13.34364732     -7.25856220  
H      0.25727471      5.53963454     -0.12126393     -4.58338694e+00    6.97802382e-01    9.97371910e-02      -16.24603443     36.50785266    -36.90203226  
H      0.30690582      5.42183054     -0.11974623      7.16418706e+00    3.07100555e+00    1.16218550e+01        8.68231951    -16.06885186     22.61170910  
H      0.44358934      5.48503533     -0.19639562      2.97089155e+00    3.82158633e+00   -3.73216929e+00       -9.34071364     31.79254965    -49.71675148  
H      0.39987331      5.48707617     -0.11853531     -1.15086614e+00   -1.64979124e+00   -5.18087518e+00      -11.24200352     13.59968331    -22.59942704  
H      0.52585961      5.49611280     -0.11854541      1.18158011e+01   -2.10631388e-01   -2.45380415e+00       -5.38259171     10.95058553    -16.25601167  
H      0.56270243      5.46314312     -0.23400405      1.54592948e+00    5.37562733e-04    6.08423733e+00       13.37046879    -20.32699942     36.07607544  
H      0.56189217      5.56214414     -0.26719726      1.70903176e+00   -7.37890055e+00   -4.35506214e+00        2.93126237     -6.27834161     14.41409710  
H      0.51472798      5.48484081     -0.15440320      1.07729841e-01   -1.79785750e+00   -1.94139018e-01       86.73817871    -90.99923526    158.42338354  
H      0.44121446      5.42476959     -0.30274495     -2.48559779e+00    1.89682491e+01    1.63416773e+00      -20.63705783     13.53325145    -39.62730164  
H      0.55861306      5.33691284     -0.21911477      1.00885903e+01    2.37759038e+00    2.65271412e+00       27.03727157    -26.47823835     73.78562285  
H      0.50892015      5.34403375     -0.21628011      1.07821498e+01    3.68498138e+00   -9.37275395e+00       15.00817658    -19.01214909     55.58078759  
H      0.45275805      5.30931349     -0.38181672     -3.44884788e-02   -2.62254281e+00   -7.71398157e+00      -22.77285239     13.26174689    -58.02970038  
H      0.73244404      5.16542332      0.32119675      3.87304821e+00    7.36090017e+00   -1.33975301e+01       -3.12760925      6.25277381    -18.36637701  
H      0.80378451      5.11102633      0.28987497     -1.22613433e+01   -3.01975268e+00    4.36191953e+00      -31.30069851     26.00398816    -61.38107454  
H      0.90359068      5.04058434      0.32695662      5.17642886e-01   -8.27919834e+00   -8.45912625e+00       13.67908920    -16.35393262     23.57115387  
H      0.87824495      5.05840856      0.34308623      1.12440551e+00    7.37760408e-01   -4.29235900e+00       19.27745557    -18.15259819     28.27515264  
H      0.89734158      5.06982331      0.32772368     -3.66826169e+00    7.03209662e+00    7.20572216e+00       -8.26184613      7.61430656    -12.87972023  
H      0.75131936      5.14152796      0.34692533     -9.57502442e-01    1.00588256e+01    2.43242795e+00        8.72247343    -24.37242871     34.25837217  
H      0.80268156      5.19103835      0.24320478     -3.57421225e+00   -7.44372891e+00   -1.18272577e+01       19.61979987    -44.36299523     46.98973420  
H      0.78117741      5.15620933      0.28993689     -2.86450691e+00   -5.54707514e+00   -4.93020948e+00       21.84847808    -47.34523740     54.75362828  
H      0.85391426      5.06955257      0.28804589     -1.34952012e+01   -6.74810308e+00   -4.23953383e+00       40.55176878    -57.76711773     56.57309596  
H      0.69408893      5.15574727      0.30861214     -8.66191492e-01    3.62114248e+00   -5.71404100e-01       31.49666756    -41.83241592     43.64813458  
H      0.65981812      5.14904149      0.32702908      3.85661311e+00   -1.74163516e+00    1.60840220e+01       27.62505349    -37.45941181     54.06973448  
H      0.64080162      5.15883327      0.30639092      3.72480909e+00    1.23833240e+01    1.17156483e+01       37.82150676    -50.76358878     57.44482666  
H      0.54844682      5.18387482      0.38736488      1.61004002e+00    4.07372098e-01   -1.21085137e+01       27.73144578    -30.01130512     48.21596539  
H      0.56033942      5.18946059      0.32961704     -1.07191667e+01   -4.17851773e+00   -1.19937440e+01       44.01387320    -31.51636061     59.41068335  
H      0.41075316      5.20526035      0.37213129      2.40438006e+00    8.13730998e+00    5.70313274e+00        4.59100124     -6.11547326     12.92437463  
H      0.58974688      5.19210835      0.33365034      2.35912526e+00    1.63499697e+00    5.17309251e+00      -19.22562879     12.01449827    -21.36560674  
H      0.70812203      5.23016889      0.22359850     -4.22235107e+00   -1.67982237e+01    2.79862694e+00       11.85242329     -7.19860120      6.52630240  
H      0.64829299      5.21551623      0.30813390     -2.88006902e-01    1.82906788e+00    5.18658450e-01       17.01833191    -10.27982165     13.14250030  
H      0.60487741      5.01979783      0.29695506     -8.43773014e+00    4.22244776e+00    2.96362037e+00        2.76065301     -4.22851862      2.32976525  
H      0.55457947      4.96912457      0.30748085     -4.38500117e-01   -7.89697479e+00   -7.25819662e-02        7.32662797    -13.34364620      7.25856222  
H      0.50441567      4.98426297      0.44010406      3.63808367e+00   -4.94292327e+00   -5.73715968e+00       16.24603454    -36.50785154     36.90203228  
H      0.51898920      5.02931602      0.43259093     -7.08152507e+00    4.17023084e+00   -1.80835838e+00       -8.68231939     16.06885299    -22.61170908  
H      0.57480208      5.03843266      0.50199551      6.19680540e+00    3.69315823e+00   -1.17571814e+01        9.34071375    -31.79254857     49.71675150  
H      0.70603148      5.11671034      0.49692431      7.49201540e+00    2.35462043e+01    6.06571913e+00       11.24200365    -13.59968219     22.59942706  
H      0.72932839      5.08216685      0.49595238     -1.10785297e+01    9.81283583e+00   -2.50661273e+00        5.38259183    -10.95058445     16.25601169  
H      0.77669242      5.13781612      0.34338177      1.27204734e+01   -3.26684206e+00   -5.18847081e+00      -13.37046867     20.32700043    -36.07607543  
H      0.69448745      5.27814411      0.38482263      3.17213498e+00   -2.01546150e+00   -7.99203576e+00       -2.93126226      6.27834259    -14.41409708  
H      0.77008381      5.21694050      0.31199273      1.20427828e+00   -1.44339581e+01    7.56514231e+00      -86.73817859     90.99923628   -158.42338353  
H      0.80011737      5.18941031      0.38642081      2.02273806e+00    6.80994337e+00    1.58793835e+01       20.63705794    -13.53325041     39.62730165  
H      0.77526106      5.12474434      0.37212491     -4.27661311e+00    1.82558776e+01   -7.08388355e+00      -27.03727145     26.47823937    -73.78562283  
H      0.67767397      5.13025876      0.40867722      4.84185740e+00   -4.51975141e+00    6.86322784e+00      -15.00817647     19.01215011    -55.58078759  
H      0.75604743      5.13269324      0.39102418      9.02793509e+00    4.89179956e+00    6.08336155e+00       22.77285250    -13.26174586     58.02970037  
H     -1.01030350    -10.71350116      0.12101962      1.74401322e+01    4.98813024e+00   -4.84517995e-01       -0.00000010     -0.00000099      0.00000001  
H     -0.96463957    -10.72926978      0.06438523     -3.20810504e+00   -1.18303779e+01   -3.49446765e+00       -0.00000010     -0.00000101      0.00000000  
H     -0.97418021    -10.75668509     -0.02147940      4.96174109e+00    1.86860391e+01    3.82888661e+00       -0.00000011     -0.00000099     -0.00000001  
H     -1.16064384    -10.76721557     -0.14422239      3.22333211e+00    8.14808778e+00    2.06198518e+00       -0.00000011     -0.00000097     -0.00000001  
H     -1.08551734    -10.75599438     -0.11019568      4.29921587e+00   -1.05470234e+01    9.29155650e+00       -0.00000011     -0.00000098     -0.00000001  
H     -1.01075567    -10.71441484     -0.16263777      6.87148270e-01   -1.10457736e+01    5.53991550e+00       -0.00000010     -0.00000095     -0.00000001  
H     -0.95296702    -10.62113361     -0.21543600     -2.80948799e+00    4.99084264e+00    7.55841380e+00       -0.00000010     -0.00000095     -0.00000001  
H     -0.94777535    -10.81612862     -0.15304801      2.23365104e+00   -2.97136313e+00   -1.72282021e-01       -0.00000009     -0.00000089     -0.00000001  
H     -1.00272691    -10.80434183     -0.21019341     -1.06635458e+01   -2.79382151e+00    2.24844977e+00       -0.00000010     -0.00000092     -0.00000001  
H     -1.06127643    -10.81341482     -0.29935843     -1.47813976e+01   -9.59737465e+00    2.65661441e+00       -0.00000009     -0.00000090     -0.00000002  
H     -1.14240221    -10.83099861     -0.36000164     -5.25056153e+00   -5.70401940e+00   -1.78186939e+00       -0.00000009     -0.00000090     -0.00000002  
H     -1.06749943    -10.73417636     -0.35659337     -9.82377895e+00   -1.94978193e+00    8.88637924e+00       -0.00000009     -0.00000093     -0.00000002  
H     -1.11742659    -10.71946287     -0.32451925      6.47212157e+00   -7.50649794e+00    9.69715127e+00       -0.00000009     -0.00000095     -0.00000002  
H     -1.16646761    -10.67252941     -0.35930182      1.41200228e+00   -2.21679580e+00    8.05690729e+00       -0.00000009     -0.00000098     -0.00000002  
H     -1.08258073    -10.70646300     -0.30419295     -7.36377265e+00   -1.14976789e+01    1.02765249e+01       -0.00000008     -0.00000097     -0.00000002  
H     -1.03270425    -10.72739352     -0.16596514     -5.04360191e+00   -2.94648143e+00   -7.65962571e+00       -0.00000009     -0.00000097     -0.00000002  
H     -1.10227176    -10.62420246     -0.08033702      6.88125313e+00    1.34935875e+00   -1.09193553e+00       -0.00000009     -0.00000098     -0.00000001  
H     -1.05969575    -10.43906219      0.04845516      2.79616847e+00   -5.53856416e-01    1.36088343e+00       -0.00000010     -0.00000108     -0.00000000  
H     -1.08711094    -10.48919423     -0.00218747      1.84302119e-03    5.37280655e+00   -3.78554291e+00       -0.00000011     -0.00000109     -0.00000001  
H     -1.09751918    -10.47478371     -0.05103357      6.75603981e+00    1.38441004e+01    5.42337560e+00       -0.00000011     -0.00000112     -0.00000002  
H     -1.07109142    -10.48299005     -0.10429673      1.42002706e+01   -6.52340761e+00   -1.29898544e-01       -0.00000010     -0.00000112     -0.00000002  
H     -1.15704114    -10.46099916     -0.07495798      6.53914384e+00    4.29101552e+00   -5.54721836e+00       -0.00000011     -0.00000114     -0.00000002  
H     -1.13115262    -10.52132995     -0.10367782      1.81194500e+00   -8.43502437e+00    4.55874315e+00       -0.00000011     -0.00000109     -0.00000002  
H     -1.20806945    -10.39338888     -0.11786323     -5.07116196e+00    8.71548132e+00    2.93990236e+00       -0.00000013     -0.00000112     -0.00000002  
H     -1.19079274    -10.49184019     -0.11101060      7.45954217e+00    4.00510096e+00   -7.43507620e+00       -0.00000012     -0.00000108     -0.00000002  
H     -1.22241861    -10.63070408     -0.09549950     -6.42093567e+00    5.25462079e+00    2.84083183e+00       -0.00000012     -0.00000100     -0.00000001  
H     -1.17402949    -10.57564976     -0.09542184     -1.02149245e+01   -1.08624511e+01   -8.31937979e-01       -0.00000011     -0.00000098     -0.00000001  
H     -1.17287240    -10.54747727     -0.12591099     -7.87579366e+00   -5.26641671e+00   -8.06448750e+00       -0.00000012     -0.00000102     -0.00000001  
H     -1.08570478    -10.56975800     -0.08082375      9.41190461e+00    6.87357970e+00   -5.16776251e-01       -0.00000011     -0.00000104     -0.00000001  
H     -1.10321205    -10.68738697     -0.07257856      2.41337208e+01    2.01384172e-01   -3.23040580e+00       -0.00000011     -0.00000101     -0.00000001  
H     -1.11079837    -10.66563278      0.03457632      3.89255777e+00   -3.86933194e+00   -1.72287077e+01       -0.00000011     -0.00000103     -0.00000000  
H     -1.02452714    -10.69104835      0.03673247      8.90834061e+00    8.13184439e+00    3.11511479e+00       -0.00000011     -0.00000102      0.00000000  
