3
100000  xi=   0.01653103  Mean pot=  -106.85738191  Cent pot=  -109.29011644 kcal/mol
H      0.69685316      5.48407296     -0.05408385       0.19925454
H      0.20828341      4.89627422     -0.07300747       0.20820918
H     -0.90513657    -10.38034718      0.12709131       0.19079121
3
200000  xi=   0.01444754  Mean pot=  -106.63555682  Cent pot=  -109.00519576 kcal/mol
H     -2.58131623      1.04790189     -4.82750462       0.17511126
H     -2.29863774      0.90894792     -4.19300223       0.20097715
H      4.87995397     -1.95684982      9.02050685       0.16600074
3
300000  xi=   0.01813580  Mean pot=  -106.12627589  Cent pot=  -109.24954500 kcal/mol
H     -2.59884078     -3.22827321     -2.55535163       0.23095798
H     -2.75053197     -3.68398938     -3.08875814       0.15351186
H      5.34937275      6.91226259      5.64410977       0.14330462
3
400000  xi=   0.02578169  Mean pot=  -106.88207435  Cent pot=  -109.49201948 kcal/mol
H      4.18591409     -2.63918065      1.55207779       0.18899483
H      4.55572015     -2.04926093      1.30760433       0.23598599
H     -8.74163424      4.68844157     -2.85968213       0.18014353
3
500000  xi=   0.02486208  Mean pot=  -106.23192538  Cent pot=  -109.18184636 kcal/mol
H      1.69105264     -3.95122692      2.33548285       0.10650618
H      1.45176033     -4.67955103      2.40843926       0.15179030
H     -3.14281297      8.63077796     -4.74392211       0.20629019
3
600000  xi=   0.01232299  Mean pot=  -104.75198402  Cent pot=  -109.11427406 kcal/mol
H     -4.79392105     -1.40243466      0.72582065       0.26412988
H     -5.00076793     -1.61000046      1.37491135       0.14895382
H      9.79468897      3.01243512     -2.10073200       0.20526439
3
700000  xi=   0.01966594  Mean pot=  -105.62973910  Cent pot=  -109.43610024 kcal/mol
H     -0.93142066     -4.92610174      2.39232739       0.23085792
H     -0.70039543     -4.31196419      2.07332898       0.23181756
H      1.63181609      9.23806593     -4.46565637       0.21218734
3
800000  xi=   0.02853522  Mean pot=  -106.57307671  Cent pot=  -107.53986785 kcal/mol
H     -3.66176877     -1.06511904     -2.93839679       0.14631546
H     -4.22215563     -1.15346011     -3.30898902       0.21697685
H      7.88392440      2.21857915      6.24738581       0.30803669
3
900000  xi=   0.02536493  Mean pot=  -103.77678022  Cent pot=  -107.13334887 kcal/mol
H      0.15950316     -5.19514647     -1.77902762       0.17381158
H      0.08141329     -4.61865144     -1.44312640       0.22592376
H     -0.24091645      9.81379790      3.22215401       0.21900819
3
1000000  xi=   0.02192047  Mean pot=  -107.46470662  Cent pot=  -109.40054967 kcal/mol
H     -1.38010188     -4.94734007     -1.79050320       0.21101299
H     -1.73162917     -4.36115495     -1.54412092       0.17775608
H      3.11173105      9.30849502      3.33462412       0.19899410
3
1100000  xi=   0.01571597  Mean pot=  -108.02939595  Cent pot=  -109.41928842 kcal/mol
H      2.81211723      3.16165983      3.52723464       0.13816967
H      2.56627542      3.13256112      2.81334314       0.18527973
H     -5.37839266     -6.29422095     -6.34057779       0.25076101
3
1200000  xi=   0.01036025  Mean pot=  -106.07718478  Cent pot=  -108.53703577 kcal/mol
H      1.42875751     -2.37802088      4.57126068       0.18040662
H      0.76507283     -2.52777694      4.42530238       0.24827953
H     -2.19383034      4.90579782     -8.99656306       0.15375385
3
1300000  xi=   0.01301877  Mean pot=  -105.98356836  Cent pot=  -109.08622579 kcal/mol
H      2.17414617      0.18326531     -4.98532553       0.17210663
H      2.39708255      0.50367051     -4.39087529       0.14953793
H     -4.57122872     -0.68693581      9.37620081       0.15745772
3
1400000  xi=   0.01825511  Mean pot=  -106.32951461  Cent pot=  -109.41220463 kcal/mol
H     -0.54905862      4.80764482     -1.76258206       0.15433321
H     -1.06355408      5.00350002     -1.28702078       0.17629878
H      1.61261270     -9.81114484      3.04960285       0.19303639
3
1500000  xi=   0.02125658  Mean pot=  -105.99904873  Cent pot=  -109.38599890 kcal/mol
H     -4.78770199     -1.22518588     -1.69184482       0.16136372
H     -4.41296199     -1.34909321     -2.33938456       0.19296994
H      9.20066398      2.57427909      4.03122938       0.24554897
3
1600000  xi=   0.02436303  Mean pot=  -104.77688262  Cent pot=  -108.97601660 kcal/mol
H     -5.13188216      1.38055417      0.32348524       0.11495703
H     -4.68057132      1.68862889      0.77281100       0.15289314
H      9.81245348     -3.06918307     -1.09629624       0.24472764
3
1700000  xi=   0.00526485  Mean pot=  -107.38335196  Cent pot=  -109.49594577 kcal/mol
H     -2.05668460     -4.61340098      0.83801929       0.21259582
H     -1.67765288     -4.98669584      1.35174182       0.16780555
H      3.73433747      9.60009681     -2.18976111       0.24011101
3
1800000  xi=   0.02043270  Mean pot=  -106.83308391  Cent pot=  -108.94552652 kcal/mol
H     -2.94992599     -0.22636449     -4.58597941       0.16381662
H     -2.92768179      0.11812277     -3.96955461       0.23336596
H      5.87760778      0.10824172      8.55553402       0.22863396
3
1900000  xi=   0.02855352  Mean pot=  -105.90139710  Cent pot=  -109.49648392 kcal/mol
H     -3.66176070     -4.01316554     -0.73568602       0.18398668
H     -3.35161606     -3.35544321     -0.89004230       0.20472207
H      7.01337676      7.36860875      1.62572832       0.21463349
3
2000000  xi=   0.01852871  Mean pot=  -105.90566242  Cent pot=  -109.27801076 kcal/mol
H     -3.27813076     -3.21343614     -2.88810182       0.19143775
H     -3.28343089     -2.49865761     -2.80905040       0.20103338
H      6.56156166      5.71209375      5.69715222       0.14816608
