96
100000  xi=   0.51892415  Mean pot=  -105.77854825  Cent pot=  -109.28085126 kcal/mol
H      0.51856765      1.84419409     -1.83192953      4.90373572e+00   -1.00978273e+01   -8.06636042e+00     -102.04357383     48.01161413     -3.96946881  
H      0.53498249      1.67604480     -1.76975177     -7.94983579e+00    1.48803766e+00    2.72213286e+00       41.98421181    -33.25795233      6.31710623  
H      0.56334403      1.69176314     -1.75197156     -9.53920678e+00   -1.24778348e+01    4.96956701e-01        6.78252913     -6.18513080      0.99622254  
H      0.57019105      1.73745879     -1.73243172      2.13693223e+00   -2.26580416e-01   -1.41546131e+01       33.97212503    -21.00464550      4.39232762  
H      0.65248846      1.74105469     -1.75723806     -3.04840820e-01    3.62970420e+00    1.09472786e+01       56.06490194    -28.35942883      2.28436182  
H      0.63435031      1.95742824     -1.85486768      2.56666130e+00    2.26908163e+00    1.27647047e+01       66.01345511    -18.21188333     -8.40011087  
H      0.62350596      1.96907621     -1.99884844     -5.16760791e+00   -3.06152428e+00    5.51111732e+00       73.40292383    -38.30013472    -21.49312533  
H      0.55853958      1.97425083     -1.92673531     -5.04606247e+00    9.63193757e+00   -1.03725455e+01       28.63933506    -12.93928393     -5.62748496  
H      0.49693036      1.85728683     -1.89880246     -3.77287069e+00    9.54024997e+00    5.75962948e+00        5.06626254     -3.58673784     -1.09611037  
H      0.35231416      1.93499337     -1.88628794      8.46648250e+00   -3.23673970e+00   -2.48580933e-01       -3.21152694      1.95999989      0.96237043  
H      0.30675125      2.05344516     -1.96894153      4.20664408e+00    2.51637252e+00    1.03890018e+01     -176.25634639     16.75985676     92.83079884  
H      0.18299466      2.05088422     -2.00015945      3.58798089e-01    1.66601850e+00    1.09350087e+01     -248.79067572    105.04266070    219.93253230  
H      0.15237021      1.93869211     -1.89252576     -1.66320986e+00   -7.05469315e+00   -8.86361720e+00     -124.50885045     77.38103376     67.28280813  
H      0.14016552      1.84029939     -2.05064899     -6.42863496e+00   -3.74604626e+00   -7.30827255e+00       38.00538866    -31.47974339    -30.64961886  
H      0.14495554      1.86670242     -2.00770986     -6.38081624e+00    9.83474267e+00   -9.73285139e-01       43.13771905    -28.16829285    -32.42173278  
H      0.17562503      1.83118987     -1.85557205     -1.73608774e+00    9.06722425e+00    5.89631291e+00      -42.44089818     33.45200847     19.90005254  
H      0.12873748      1.82658076     -1.87948219     -8.16636979e+00   -8.46736975e+00    6.88922802e-01      -22.84161741     39.80162914     15.82112605  
H      0.11446748      1.79689619     -1.75561133      6.65649545e-01   -6.77744479e+00    7.42732908e+00      -28.32968496     42.72493118      3.32086053  
H      0.20401985      1.74945219     -1.72552186     -2.54686633e+00   -2.92228080e+00   -1.77481135e+00      -29.20353684     32.14995374      4.70226255  
H      0.16100194      1.77930729     -1.72012162     -4.13749961e+00   -5.25502714e+00    2.45359578e+00     -160.09040887    140.51575787     25.54193514  
H      0.27103027      1.82153599     -1.72533363     -6.66104861e-01    8.00846663e+00    1.30912441e+00        0.00861087     -0.00358453     -0.00146313  
H      0.24131400      1.75348103     -1.68668904      7.67327187e+00    7.62005656e+00    6.45211974e+00      -84.07341087     52.78705225      4.53524053  
H      0.37777926      1.79454453     -1.73105310     -3.20247974e-01    3.07301991e+00   -6.73033759e+00      -12.30585677      6.55349881      2.16460854  
H      0.39550413      1.73329115     -1.59858487      3.22631347e+00    9.60730057e+00   -1.69880140e+00       28.04889152    -26.07326833      3.90732232  
H      0.50267783      1.71018619     -1.60887382      2.24100081e+00    8.70603531e+00   -5.14874356e+00       50.52634023    -43.85619222      4.79137691  
H      0.56745727      1.76966696     -1.80750856      8.17532876e+00    4.98659491e-01   -3.07190172e+00       47.98422734    -32.23084454     -4.71776742  
H      0.53188603      1.96168625     -1.86641794     -4.70458807e+00   -2.11819057e+00   -9.54086217e+00       33.60453890    -15.27407924     -9.27543912  
H      0.50111456      1.78833315     -1.84700905      1.40469182e-02   -2.08484902e+01    1.29876945e+00       41.65275159    -35.85702466    -13.26351399  
H      0.41932207      1.72332872     -1.83863597     -3.98268267e+00    9.27274565e+00    4.09400398e+00        9.71359576    -11.23507464     -2.05924401  
H      0.49048159      1.63864590     -1.75122380      5.21680922e+00    5.64005809e+00    2.06539712e+00       27.07766377    -29.28735624      0.04652660  
H      0.44108813      1.75030264     -1.70043001      5.72443338e+00   -4.30284969e+00   -2.27721969e+00      -30.01002167     19.10126955     -3.20795547  
H      0.48225230      1.73942056     -1.75924609      1.17609875e+01   -1.61953405e+00    5.61919645e+00       11.05892080     -6.21076288      2.18549450  
H     -0.06378247      2.11819037     -1.85458271      1.36149141e+00    9.87230798e+00   -2.31630640e+00      102.04357582    -48.01156464      3.96942350  
H     -0.10838667      2.18569322     -1.86655656     -1.22201491e+01   -7.10442497e+00    2.94341102e+00      -41.98420482     33.25801064     -6.31716187  
H      0.01006419      2.19631823     -1.83324415     -4.62578729e+00    8.84836377e+00   -8.04208208e+00       -6.78252019      6.18519098     -0.99627942  
H     -0.10610769      2.15560894     -1.81987264      7.17379025e-02    3.42559707e+00    5.01080355e-01      -33.97211809     21.00470892     -4.39238314  
H     -0.10254507      2.12297533     -1.78800222     -1.50498160e+00    3.03994214e+00    6.47754399e+00      -56.06489732     28.35949339     -2.28441808  
H     -0.19079793      2.18507162     -1.74986912     -3.77407357e+00    8.14510323e+00    1.09344251e+00      -66.01345226     18.21194747      8.40005621  
H     -0.16315241      2.37953864     -1.76850707      1.21014270e+01   -3.71323796e+00   -2.19374785e+00      -73.40292168     38.30019894     21.49307076  
H     -0.14652184      2.29279886     -1.78819469      9.39560244e+00   -2.07211150e+01    2.38359739e+00      -28.63933371     12.93933776      5.62744001  
H     -0.10540787      2.28372408     -1.76848587     -9.46571778e+00   -1.20049417e+01   -1.55509147e+01       -5.06626040      3.58679488      1.09606287  
H     -0.25716831      2.30695774     -1.70364668     -8.60353511e+00    1.19416365e+00   -6.83612460e+00        3.21152794     -1.95993962     -0.96241861  
H     -0.21915408      2.10345229     -1.69195729     -2.64026131e+00   -3.91862044e+00   -5.14216901e+00      176.25635037    -16.75979797    -92.83084736  
H     -0.20249733      2.21364391     -1.65938204     -3.31023908e+00    5.14314471e+00    5.08980281e+00      248.79067739   -105.04260175   -219.93258072  
H     -0.32292587      2.23408390     -1.63568246      6.71697936e+00    1.54328228e+00   -1.40891233e+01      124.50885110    -77.38096692    -67.28286214  
H     -0.40645221      2.29306159     -1.60982701     -4.89187451e+00   -2.74832592e+00   -1.23056255e+01      -38.00538746     31.47981755     30.64955762  
H     -0.45167347      2.25629283     -1.55929188     -1.28409920e+01    1.82935727e+01    2.92714923e+00      -43.13771875     28.16836533     32.42167257  
H     -0.32864825      2.22865895     -1.61912389      7.14327863e+00   -7.84283016e+00    1.49357959e+01       42.44089770    -33.45194533    -19.90010488  
H     -0.19687381      2.39395947     -1.65394879      1.35940070e+00   -9.13489190e+00   -3.09370635e+00       22.84161945    -39.80157130    -15.82117727  
H     -0.26577110      2.37034488     -1.71103757     -8.93273937e+00    8.23958415e+00   -3.17234350e+00       28.32969132    -42.72486604     -3.32092822  
H     -0.26141202      2.26184149     -1.65057847     -3.28114473e+00   -1.25643348e+01    3.00637021e+00       29.20354149    -32.14988577     -4.70232723  
H     -0.27911489      2.16560983     -1.64990222     -1.06233996e+01   -4.82645597e-01   -1.96860351e+00      160.09041108   -140.51568789    -25.54199890  
H     -0.40492827      2.10494989     -1.61226604     -5.15391401e-01   -1.39042224e+01   -7.09261393e+00       -0.00861103      0.00366468      0.00139247  
H     -0.31102801      2.10027899     -1.65689341     -7.82506136e+00   -2.03144142e+00    3.21409760e+00       84.07341339    -52.78697579     -4.53530961  
H     -0.25497376      2.13151669     -1.61975036      9.25151496e+00    2.79069671e+00   -8.90827332e+00       12.30585901     -6.55342269     -2.16467513  
H     -0.18520255      2.27309893     -1.67948230      2.87993358e+00    1.06374854e+01    2.43884412e+00      -28.04887497     26.07336137     -3.90741177  
H     -0.14308653      2.27070248     -1.67011236     -1.73919112e+00   -7.56039657e-01    3.80569672e-02      -50.52632656     43.85627899     -4.79145754  
H     -0.12365211      2.23388327     -1.73955966      5.85502399e+00   -5.41549226e+00    3.82198575e+00      -47.98422179     32.23091003      4.71770979  
H     -0.17111418      2.28121748     -1.67237807      9.35124190e+00   -8.92885984e+00   -2.95412899e+00      -33.60453484     15.27414303      9.27538385  
H     -0.11188755      2.31604020     -1.65181072      1.06147593e+00    2.96592486e+00    5.92341116e+00      -41.65274677     35.85709494     13.26345288  
H     -0.07359544      2.29345691     -1.73414192      3.28506311e+00    1.48536303e+01    1.32744305e+01       -9.71358981     11.23513922      2.05918374  
H     -0.05220196      2.22561746     -1.75215786      3.59539605e-01    1.33414794e+01   -6.64693807e+00      -27.07765386     29.28742367     -0.04659090  
H     -0.15008592      2.12658185     -1.76362343      9.66371599e+00    1.81753975e+00   -3.77682634e-01       30.01002674    -19.10121004      3.20790107  
H     -0.16905375      2.10520129     -1.88796166     -3.00213859e+00    2.23600392e+00   -7.39820143e+00      -11.05891590      6.21082031     -2.18554784  
H     -0.11471098     -4.11612443      3.77744154      1.76759342e+01    6.64140659e+00   -3.36684957e-01       -0.00000198     -0.00004949      0.00004531  
H     -0.06902255     -4.13186336      3.72080312     -2.97441388e+00   -1.01796213e+01   -3.34620869e+00       -0.00000699     -0.00005831      0.00005564  
H     -0.07861313     -4.15928064      3.63496071      5.19974016e+00    2.03370673e+01    3.97506373e+00       -0.00000894     -0.00006018      0.00005688  
H     -0.26501776     -4.16983612      3.51218415      3.45629851e+00    9.80128107e+00    2.21115644e+00       -0.00000694     -0.00006342      0.00005552  
H     -0.18993893     -4.15856947      3.54624355      4.53626315e+00   -8.89760411e+00    9.43777855e+00       -0.00000462     -0.00006456      0.00005626  
H     -0.11515662     -4.11703861      3.49377981      9.22465629e-01   -9.39223942e+00    5.68810503e+00       -0.00000285     -0.00006414      0.00005466  
H     -0.05735436     -4.02372021      3.44098417     -2.57535675e+00    6.64140111e+00    7.70625956e+00       -0.00000215     -0.00006422      0.00005457  
H     -0.05220622     -4.21872801      3.50338913      2.47149990e+00   -1.31993439e+00   -2.58548825e-02       -0.00000135     -0.00005383      0.00004495  
H     -0.10709954     -4.20695727      3.44621264     -1.04306968e+01   -1.14081020e+00    2.39755426e+00       -0.00000214     -0.00005705      0.00004750  
H     -0.16570240     -4.21598965      3.35708164     -1.45439410e+01   -7.94786352e+00    2.80267750e+00       -0.00000099     -0.00006026      0.00004819  
H     -0.24679734     -4.23362277      3.29641176     -5.01573757e+00   -4.05020773e+00   -1.63342458e+00       -0.00000399     -0.00005879      0.00004852  
H     -0.17189220     -4.13675702      3.29982912     -9.58921292e+00   -2.99647722e-01    9.03387745e+00       -0.00000167     -0.00005895      0.00004842  
H     -0.22185387     -4.12206492      3.33191370      6.70972605e+00   -5.85461413e+00    9.84385250e+00       -0.00000065     -0.00006683      0.00005401  
H     -0.27083964     -4.07513899      3.29710409      1.64481833e+00   -5.64098178e-01    8.20581437e+00       -0.00000120     -0.00007416      0.00006124  
H     -0.18700999     -4.10903913      3.35224757     -7.12598355e+00   -9.84803107e+00    1.04225565e+01       -0.00000031     -0.00007248      0.00006021  
H     -0.13709329     -4.13001828      3.49044553     -4.80929887e+00   -1.29252720e+00   -7.51101571e+00        0.00000048     -0.00006314      0.00005234  
H     -0.20667013     -4.02678082      3.57608970      7.11634390e+00    2.99908894e+00   -9.44711644e-01       -0.00000204     -0.00005784      0.00005122  
H     -0.16411882     -3.84167087      3.70488613      3.03342006e+00    1.09859191e+00    1.50779614e+00       -0.00000636     -0.00006514      0.00006769  
H     -0.19148379     -3.89180058      3.65422116      2.34751397e-01    7.02505439e+00   -3.63679698e+00       -0.00000465     -0.00006796      0.00006468  
H     -0.20195103     -3.87736502      3.60540847      6.99403518e+00    1.54940029e+01    5.56940655e+00       -0.00000221     -0.00006999      0.00006376  
H     -0.17547577     -3.88561681      3.55211248      1.44341100e+01   -4.86946126e+00    1.88075964e-02        0.00000016     -0.00008015      0.00007066  
H     -0.26144585     -3.86357650      3.58147269      6.77478068e+00    5.94051899e+00   -5.40024363e+00       -0.00000252     -0.00007646      0.00006908  
H     -0.23557114     -3.92394489      3.55275024      2.04875735e+00   -6.78212319e+00    4.70587072e+00       -0.00000224     -0.00007612      0.00006660  
H     -0.31244514     -3.79599249      3.53854831     -4.83808100e+00    1.03671110e+01    3.08855457e+00       -0.00001655     -0.00009304      0.00008944  
H     -0.29522671     -3.89442745      3.54543206      7.69765012e+00    5.65543202e+00   -7.28907782e+00       -0.00001367     -0.00008677      0.00008063  
H     -0.32679903     -4.03333122      3.56090877     -6.18746483e+00    6.90826891e+00    2.98976631e+00       -0.00000554     -0.00006549      0.00005762  
H     -0.27844076     -3.97822688      3.56101271     -9.97876867e+00   -9.21307317e+00   -6.85181255e-01       -0.00000406     -0.00006379      0.00005527  
H     -0.27728585     -3.95009694      3.53051409     -7.63946124e+00   -3.61328184e+00   -7.91702683e+00       -0.00000482     -0.00007028      0.00006111  
H     -0.19008348     -3.97235613      3.57559059      9.64527567e+00    8.52474029e+00   -3.68258029e-01       -0.00000595     -0.00006458      0.00006027  
H     -0.20764609     -4.08997814      3.58386300      2.43718115e+01    1.85202029e+00   -3.08432870e+00       -0.00000991     -0.00006743      0.00006430  
H     -0.21517510     -4.06825730      3.69098353      4.12570973e+00   -2.21598368e+00   -1.70795916e+01       -0.00000507     -0.00005951      0.00005440  
H     -0.12894383     -4.09362434      3.69316999      9.14497571e+00    9.78125549e+00    3.26157494e+00       -0.00000490     -0.00005743      0.00005333  
