3
100000  xi=   0.44722362  Mean pot=  -107.96407854  Cent pot=  -109.25726297 kcal/mol
H      0.31759544      2.26010011     -2.01426226       0.20765738
H      0.23444301      2.69084453     -1.44569123       0.19188394
H     -0.55203845     -4.95094464      3.45995350       0.19079102
3
200000  xi=   0.44888426  Mean pot=  -108.11932712  Cent pot=  -109.03226562 kcal/mol
H      2.44317688      1.37102302      0.59289185       0.14849341
H      2.74990430      1.76460057      0.08882060       0.18693345
H     -5.19308118     -3.13562359     -0.68171246       0.20197153
3
300000  xi=   0.44183444  Mean pot=  -104.95656437  Cent pot=  -107.38540391 kcal/mol
H     -1.96202167      0.92290177      1.97581534       0.18244363
H     -1.58644277      1.17704633      2.65784474       0.12884447
H      3.54846444     -2.09994810     -4.63366008       0.16475363
3
400000  xi=   0.44652075  Mean pot=  -107.22155499  Cent pot=  -109.26449550 kcal/mol
H     -1.83814073     -0.87837054      2.76479759       0.15319200
H     -1.33670785     -0.64112223      2.30817544       0.14907163
H      3.17484858      1.51949278     -5.07297303       0.18343539
3
500000  xi=   0.45090999  Mean pot=  -106.26824273  Cent pot=  -109.47658716 kcal/mol
H      0.07679852     -0.53168091      3.25331935       0.14493652
H     -0.27195325     -0.87188865      2.68464075       0.17948194
H      0.19515472      1.40356956     -5.93796010       0.25141296
3
600000  xi=   0.45523955  Mean pot=  -105.27667587  Cent pot=  -109.31621192 kcal/mol
H     -2.65728055      0.69062305      1.47654865       0.14288899
H     -2.22118046      0.25190369      1.92329869       0.24185293
H      4.87846101     -0.94252674     -3.39984734       0.21004513
3
700000  xi=   0.44248147  Mean pot=  -108.31960719  Cent pot=  -108.99080401 kcal/mol
H     -2.80086464     -0.51453639      0.33112283       0.14401560
H     -3.30414213     -0.02845147      0.43873658       0.17622200
H      6.10500676      0.54298786     -0.76985941       0.15797568
3
800000  xi=   0.44674547  Mean pot=  -106.19542440  Cent pot=  -109.38123325 kcal/mol
H     -1.32840746     -2.67204328     -0.49392886       0.15298753
H     -1.48047625     -2.71330411      0.21389608       0.18488548
H      2.80888371      5.38534739      0.28003278       0.14301129
3
900000  xi=   0.44393069  Mean pot=  -106.21113676  Cent pot=  -109.24342548 kcal/mol
H      1.96328773      0.12166434     -2.32390578       0.13964289
H      1.40572742      0.02053526     -2.76401533       0.17652558
H     -3.36901516     -0.14219961      5.08792111       0.25773118
3
1000000  xi=   0.45624058  Mean pot=  -105.83072855  Cent pot=  -109.32016536 kcal/mol
H      0.30398389      1.78368083      2.57776544       0.21642682
H     -0.35405872      1.75014611      2.28410978       0.14880716
H      0.05007483     -3.53382694     -4.86187522       0.19329722
3
1100000  xi=   0.44384568  Mean pot=  -104.31317179  Cent pot=  -108.60518074 kcal/mol
H      1.74015019     -1.89684989      1.40163278       0.17675087
H      1.87669682     -2.52122163      0.93643614       0.23184599
H     -3.61684701      4.41807152     -2.33806892       0.18902914
3
1200000  xi=   0.45119566  Mean pot=  -106.24613565  Cent pot=  -108.92548172 kcal/mol
H     -1.75793537      1.31547918      2.21341936       0.16645448
H     -1.04174062      1.24063124      2.51410823       0.13753665
H      2.79967599     -2.55611043     -4.72752759       0.16592170
3
1300000  xi=   0.44698893  Mean pot=  -106.65859291  Cent pot=  -109.49743381 kcal/mol
H      2.37381416      1.28246282      1.92396503       0.20033617
H      1.63234026      1.32198170      1.93399936       0.15933298
H     -4.00615442     -2.60444453     -3.85796439       0.13818653
3
1400000  xi=   0.44611178  Mean pot=  -106.37179443  Cent pot=  -108.81768940 kcal/mol
H      1.20988227     -1.38353174     -2.30156240       0.19132182
H      0.92788481     -2.02719758     -2.29105715       0.23239040
H     -2.13776708      3.41072932      4.59261955       0.18291769
3
1500000  xi=   0.45256329  Mean pot=  -107.10658616  Cent pot=  -109.15874088 kcal/mol
H      1.13554651     -1.58204367     -2.31332735       0.18552699
H      1.60960946     -1.04885191     -2.33761528       0.22783566
H     -2.74515597      2.63089558      4.65094264       0.21294761
3
1600000  xi=   0.44947050  Mean pot=  -106.96273033  Cent pot=  -109.23255890 kcal/mol
H      1.65322129     -2.31295501     -1.61304385       0.13095104
H      1.52821319     -2.24067132     -0.91073855       0.17617849
H     -3.18143448      4.55362633      2.52378241       0.13471119
3
1700000  xi=   0.44404029  Mean pot=  -106.92885725  Cent pot=  -109.36097615 kcal/mol
H      1.15131461      2.97561813      1.07713940       0.18795096
H      0.79631679      2.68822985      0.46949177       0.12437658
H     -1.94763140     -5.66384798     -1.54663117       0.15916154
3
1800000  xi=   0.44466820  Mean pot=  -105.53883167  Cent pot=  -108.75861406 kcal/mol
H      1.73076010     -2.10328419     -0.36004185       0.20424460
H      2.06032096     -2.69833726     -0.75365072       0.20279796
H     -3.79108106      4.80162145      1.11369257       0.19063068
3
1900000  xi=   0.44984956  Mean pot=  -107.07834329  Cent pot=  -109.49658205 kcal/mol
H     -0.22161712     -1.38355847      2.35471858       0.29673913
H     -0.25487786     -1.41950253      3.09298758       0.18160737
H      0.47649498      2.80306100     -5.44770615       0.13073296
3
2000000  xi=   0.45544158  Mean pot=  -106.05318748  Cent pot=  -109.38362306 kcal/mol
H     -0.77840158      0.69598492     -2.75279809       0.17102627
H     -0.31270553      0.24467447     -3.07765344       0.18568571
H      1.09110711     -0.94065939      5.83045153       0.16896885
