3
100000  xi=   1.04251091  Mean pot=  -102.33974248  Cent pot=  -103.85199347 kcal/mol
H      0.38514115     -0.80774177      0.72131584       0.19027085
H     -0.00548522      0.09838985     -0.21666001       0.21319957
H     -0.37965593      0.70935193     -0.50465583       0.14921655
3
200000  xi=   1.02897604  Mean pot=   -99.78384244  Cent pot=  -101.61496481 kcal/mol
H     -0.83462525      0.08194344     -0.69760495       0.19163327
H      0.12641264      0.09928899      0.08567390       0.24881570
H      0.70821261     -0.18123243      0.61193105       0.20286502
3
300000  xi=   1.02063053  Mean pot=   -99.31313178  Cent pot=   -99.26246248 kcal/mol
H     -0.69177655     -0.43754490      0.70124031       0.12726849
H     -0.00182303      0.02063063     -0.14929996       0.21653489
H      0.69359958      0.41691427     -0.55194036       0.17654615
3
400000  xi=   1.03081528  Mean pot=   -99.64802707  Cent pot=  -102.21796719 kcal/mol
H      0.87056532      0.30768094     -0.61363084       0.15063627
H     -0.12942161     -0.08311211      0.03911397       0.16888233
H     -0.74114370     -0.22456883      0.57451687       0.22990310
3
500000  xi=   1.03180879  Mean pot=   -96.98149442  Cent pot=   -97.47736337 kcal/mol
H     -0.09390291      0.94934910     -0.75825785       0.20383799
H     -0.04667448     -0.14345644      0.06645451       0.20970994
H      0.14057738     -0.80589266      0.69180333       0.22135973
3
600000  xi=   1.02919709  Mean pot=   -99.48763642  Cent pot=  -101.50048117 kcal/mol
H     -0.15526069     -0.09228021      1.02302740       0.21130683
H     -0.11380985      0.04237431     -0.16777114       0.17623234
H      0.26907054      0.04990590     -0.85525626       0.17861803
3
700000  xi=   1.04810096  Mean pot=  -100.47435547  Cent pot=  -102.90723699 kcal/mol
H      0.14490395      1.09810312     -0.14162551       0.23269624
H      0.14387964     -0.30731418     -0.10473683       0.22641461
H     -0.28878358     -0.79078894      0.24636234       0.18102504
3
800000  xi=   1.03603954  Mean pot=  -100.47182939  Cent pot=  -102.76728004 kcal/mol
H      0.21424207     -0.17199459     -1.11468842       0.14526808
H     -0.09911073      0.07096773      0.14699513       0.17901358
H     -0.11513134      0.10102687      0.96769329       0.12318480
3
900000  xi=   1.04451035  Mean pot=  -100.97071510  Cent pot=  -103.45535014 kcal/mol
H      0.97809371     -0.51112910      0.28034901       0.20257110
H     -0.30101641     -0.00202150      0.07889648       0.14325320
H     -0.67707731      0.51315059     -0.35924549       0.17783426
3
1000000  xi=   1.02392967  Mean pot=  -100.61561097  Cent pot=  -101.21585670 kcal/mol
H     -0.60107038     -0.78555856     -0.37305809       0.19607915
H      0.04416579      0.06808430      0.11700946       0.21748620
H      0.55690458      0.71747426      0.25604863       0.15738583
3
1100000  xi=   1.02927561  Mean pot=  -100.46401355  Cent pot=  -102.09046282 kcal/mol
H      0.60331969      0.65957699      0.55096281       0.15079858
H     -0.07413298     -0.08633230     -0.07766887       0.20064076
H     -0.52918671     -0.57324469     -0.47329394       0.19207093
3
1200000  xi=   1.03163513  Mean pot=   -99.54775730  Cent pot=  -102.26723635 kcal/mol
H      0.89034672      0.58915898      0.22265826       0.21995235
H     -0.06390955     -0.17008934     -0.06096428       0.16649615
H     -0.82643718     -0.41906964     -0.16169398       0.15707542
3
1300000  xi=   1.03696461  Mean pot=  -100.32171551  Cent pot=  -103.21300861 kcal/mol
H     -0.80474756     -0.65642470     -0.39079523       0.15034436
H      0.08757795      0.12254827      0.11120758       0.17064245
H      0.71716961      0.53387643      0.27958764       0.19989874
3
1400000  xi=   1.03084803  Mean pot=   -99.85136051  Cent pot=  -100.57925481 kcal/mol
H     -0.47204144     -0.91162314      0.49599821       0.16951570
H     -0.04617424      0.18133730     -0.06376701       0.21861732
H      0.51821568      0.73028585     -0.43223120       0.16209114
3
1500000  xi=   1.02460731  Mean pot=   -98.86624067  Cent pot=  -100.01709369 kcal/mol
H      0.35767348     -0.68823875     -0.65192165       0.26502235
H     -0.22416660      0.10043206     -0.00415241       0.16686789
H     -0.13350688      0.58780669      0.65607406       0.17990468
3
1600000  xi=   1.04328117  Mean pot=  -100.36263743  Cent pot=  -103.01297748 kcal/mol
H     -0.06181446      1.06407698     -0.48982293       0.17292050
H     -0.16047750     -0.25194655      0.01851736       0.15176717
H      0.22229196     -0.81213043      0.47130557       0.16575495
3
1700000  xi=   1.03819303  Mean pot=  -101.60853615  Cent pot=  -103.33908565 kcal/mol
H      0.43010867      1.02699178      0.07820192       0.17395468
H     -0.08406104     -0.16671835      0.06028530       0.16060596
H     -0.34604764     -0.86027343     -0.13848723       0.15941404
3
1800000  xi=   1.03419824  Mean pot=   -99.47792606  Cent pot=  -102.41353621 kcal/mol
H     -0.36229633     -0.05815383     -1.03645745       0.21456182
H     -0.02709804     -0.09900207      0.19975754       0.22034055
H      0.38939437      0.15715590      0.83669991       0.18264733
3
1900000  xi=   1.03432164  Mean pot=  -100.07801537  Cent pot=  -102.90140105 kcal/mol
H      0.99118228      0.27711581      0.46152577       0.18577869
H     -0.15845867     -0.01298122     -0.04426803       0.17681358
H     -0.83272361     -0.26413459     -0.41725773       0.19828717
3
2000000  xi=   1.02938088  Mean pot=  -100.55044050  Cent pot=  -101.93185545 kcal/mol
H      0.67660185     -0.84227100     -0.24734885       0.15378434
H     -0.10104447      0.10179987     -0.00388883       0.18795706
H     -0.57555738      0.74047112      0.25123768       0.13188554
