96
100000  xi=   0.08818120  Mean pot=  -106.73151442  Cent pot=  -109.04044556 kcal/mol
H     -0.17761104      4.99893927     -0.08752115      4.13676723e+00   -8.04760905e+00   -7.88374680e+00       -9.27432950      5.31303360      1.49562643  
H     -0.20949800      4.90841248     -0.08927863     -1.13480359e+01    6.79539780e+00    8.71387383e+00       -3.09493459      1.31673449      0.23081762  
H     -0.14492028      4.92690921     -0.07589366     -5.99332048e+00   -2.81851716e+00   -2.09307567e-01      -16.40611556      7.05481959      0.62244080  
H     -0.15640100      4.99034713     -0.04211087      1.47055963e+00    9.45812525e+00   -1.35788596e+01       -5.66854851      3.90134586      0.56450799  
H     -0.10734993      4.98814272      0.00903556      2.73237701e+00    5.25551916e+00    1.20201252e+01      -15.83541824     11.76324490      4.10796199  
H     -0.12371159      5.13149849     -0.05248831      1.49308792e+01    8.67250713e+00    6.72708532e+00       25.07735074    -21.61502262     -4.39851958  
H     -0.18213432      5.23213064     -0.13449493      6.79118851e+00   -9.59872684e+00    1.96925809e+00      -36.68044612     24.97232486      5.06708639  
H     -0.14714030      5.21023289     -0.08661871      5.23742421e+00    1.87894429e+00   -9.06401818e+00       -2.12661476      1.90970821      0.52611463  
H     -0.10860647      5.20928825      0.04425282     -6.06436714e+00    6.69945652e+00   -3.55953206e+00      -31.25133280     42.84137539     24.36257772  
H     -0.24796225      5.22670440      0.02154767      2.30205403e-01   -7.79383662e+00    1.35499094e+00        4.75591718     -6.05594619     -2.50261251  
H     -0.33124276      5.23576705     -0.03761105     -8.91427043e+00   -1.84334997e+00    9.87867692e+00      -52.59202467     58.11447419     15.96999330  
H     -0.34088435      5.32245428     -0.03359389     -3.05354279e+00    2.20393424e+00    1.17074679e+01      -44.52911463     63.64997004     16.49276899  
H     -0.56149982      5.19507600     -0.05053353      1.74926188e-01   -6.87821197e+00   -9.97647925e+00      -78.27935974     54.75947841      2.01193770  
H     -0.60322893      5.15498534     -0.14093596      2.76220078e+00   -2.00577001e+00   -9.57846811e+00      -74.60788429     49.10481211     -2.69227925  
H     -0.54375069      5.15084871     -0.09708782     -1.44941472e+01    1.73295751e+01    1.20413175e+01      -33.65525268     27.95895246     -1.84156921  
H     -0.48759678      5.06428792     -0.04373752     -1.59866345e+00    2.67395885e+00    2.95827829e+00      -21.54076459     13.19558020     -0.63753466  
H     -0.43098359      5.14214684     -0.10516507     -1.84588526e+00   -1.00751136e+01   -5.23368152e-01       -7.80153524      4.92989887     -1.03045790  
H     -0.51685091      5.12663770     -0.01538809     -6.52614188e+00    4.55801631e+00    7.65914065e+00      -50.43786357     29.52696684      2.03229068  
H     -0.42676295      5.10772290     -0.07151811     -7.67523756e+00   -4.75676097e+00   -4.13846961e+00      -48.42562738     41.19894683    -13.23923013  
H     -0.30159231      5.09775506      0.04049370     -4.08763193e+00   -1.52104356e-01   -4.61352863e+00       35.30324017    -63.92486122     -4.82171437  
H     -0.28579712      5.09328304      0.10192890     -2.92125293e+00    4.84151588e-01    2.55274818e+00       30.53814149    -65.81828681    -14.86340097  
H     -0.30894151      5.07140783      0.02646809      6.71780402e+00    2.81204972e+00    1.34357232e+01        2.74839900     -4.43802541      0.07223110  
H     -0.16072290      5.15633274      0.00920489      3.28661950e+00    5.59331211e+00   -4.02309763e+00       -9.61316662     24.53542208     -1.27605809  
H     -0.14058414      5.22229321      0.11449183      2.72846386e-03   -2.46564012e+00   -2.80351174e+00      -24.70444200     57.88637354      7.50081243  
H     -0.11167924      5.17023315      0.09040962     -1.04516974e+00    1.38058568e+01    9.80001674e-01      -25.10431755     41.39801429      3.15587042  
H     -0.08160123      5.17584136      0.00241513      1.18131624e+01    3.71244565e+00   -2.41991297e+00      -29.81107209     45.74541835      9.70003285  
H     -0.13527741      5.32415754     -0.01804108     -4.57103821e+00    1.09073600e+00   -7.01526442e-01      -40.55890569     63.94829599      8.27966177  
H     -0.05560336      5.22873103      0.03402909      5.36934224e+00    3.69141135e+00   -6.44663568e+00      -13.51387444     27.44759715      6.37304609  
H     -0.11838221      5.21741720     -0.00402356     -1.19572386e+01    1.51707385e+01    7.49741091e+00      -35.78168558     64.02607887     13.41508737  
H     -0.15895117      5.09253324     -0.00757656      7.20495849e+00    5.82311558e+00   -1.10878478e+01      -52.34717105     57.78784412      7.16417026  
H     -0.24002027      5.01971245     -0.01443483     -6.65169839e+00    6.72500956e-01   -8.71861612e+00      -25.91664363     21.19097161      1.20753816  
H     -0.25810641      4.97620988     -0.10197435      3.38992836e+00    1.25476479e+00   -5.63849653e+00      -34.98221669     23.23462098      1.91289140  
H      0.47138484      4.62714567     -0.19218159      2.18722609e+00    9.14268583e+00   -2.39690900e+00        9.27432952     -5.31303164     -1.49562650  
H      0.47511797      4.61714402     -0.14033672     -8.76624580e+00   -1.11013289e+01   -2.93618524e+00        3.09493460     -1.31673249     -0.23081768  
H      0.55730392      4.62494471     -0.10253573     -8.11176504e+00    5.03567527e-01   -7.23189292e+00       16.40611558     -7.05481763     -0.62244085  
H      0.45950576      4.56645295     -0.10344655      7.94108852e-01   -4.94111065e+00    3.27451243e-02        5.66854855     -3.90134390     -0.56450801  
H      0.49628750      4.53973433     -0.14755769     -4.48388417e+00    2.72237644e+00    5.51447409e+00       15.83541828    -11.76324292     -4.10796202  
H      0.40625781      4.67469980     -0.14544393     -1.60798952e+01    3.06266624e+00    7.23348047e+00      -25.07735072     21.61502451      4.39851955  
H      0.48150977      4.78031674     -0.22617163      1.98593351e-01    4.13361045e+00    1.46038653e+00       36.68044613    -24.97232298     -5.06708641  
H      0.39813335      4.72057527     -0.22151688     -8.27940561e-01   -1.16523159e+01    1.17828964e+00        2.12661477     -1.90970646     -0.52611466  
H      0.33915313      4.59547005     -0.30480679     -7.11846810e+00   -7.84718948e+00   -6.12335667e+00       31.25133281    -42.84137356    -24.36257774  
H      0.18209758      4.67908773     -0.20475423     -3.08506457e-01    7.06014395e+00   -8.33086111e+00       -4.75591718      6.05594796      2.50261250  
H      0.25783861      4.58482893     -0.21649037      1.05386387e+01    1.76232394e+00   -4.52891413e+00       52.59202468    -58.11447239    -15.96999331  
H      0.16040005      4.60591776     -0.21926046      1.58334736e-01    5.91398213e+00    4.42962779e+00       44.52911463    -63.64996820    -16.49276899  
H      0.22992084      4.64144626     -0.07087464      4.93873358e+00    2.68388513e+00   -1.28736165e+01       78.27935973    -54.75947653     -2.01193770  
H      0.17596878      4.64213932     -0.11281805     -1.40271429e+01   -3.17285788e+00   -9.92617576e+00       74.60788429    -49.10481017      2.69227925  
H      0.07601821      4.63597844     -0.06317492     -4.66851370e+00    1.21084344e+01   -9.97955536e+00       33.65525266    -27.95895055      1.84156921  
H      0.17357778      4.65926138     -0.02416896      7.06336675e+00   -1.28421454e-01    1.79773769e+01       21.54076458    -13.19557828      0.63753465  
H      0.20186168      4.74224316     -0.02157634     -4.90446885e+00   -6.21910623e+00   -1.76925017e+00        7.80153524     -4.92989693      1.03045787  
H      0.20452598      4.70433452     -0.04445450     -1.68122103e+00   -1.77749766e+00   -3.30200854e+00       50.43786355    -29.52696469     -2.03229073  
H      0.20839851      4.56734823      0.10213062      1.90271384e+00   -9.41546955e+00    5.48014620e+00       48.42562738    -41.19894465     13.23923010  
H      0.02246110      4.51097974     -0.00376550     -1.06138164e+01   -4.27483934e+00    5.20542412e+00      -35.30324018     63.92486347      4.82171435  
H     -0.00909209      4.49690585     -0.03274785      1.79681633e+00   -5.05916095e+00   -8.23196643e+00      -30.53814150     65.81828907     14.86340095  
H      0.07823692      4.44620453      0.03664359     -6.81254780e+00    4.08424589e+00   -3.65764106e+00       -2.74839899      4.43802773     -0.07223113  
H      0.12250957      4.43344628      0.04680135      5.70411606e+00    1.58984825e+00   -1.15136953e+01        9.61316663    -24.53541985      1.27605808  
H      0.18991275      4.44788729      0.01414569      6.15899285e+00    2.40233102e+01    3.65453342e+00       24.70444204    -57.88637121     -7.50081244  
H      0.31024868      4.47445731      0.03736895      1.60667048e+00   -4.54384730e+00   -5.98486222e+00       25.10431759    -41.39801207     -3.15587043  
H      0.36441942      4.49141777     -0.14271266      2.27385449e+00   -7.30937147e+00    3.27527857e+00       29.81107214    -45.74541629     -9.70003288  
H      0.33505309      4.58259825     -0.11405396      9.27517353e+00   -1.08301876e+01   -1.16820738e+01       40.55890573    -63.94829399     -8.27966180  
H      0.28381468      4.53934995     -0.12603802     -4.23466555e+00   -2.02538303e+01    1.37706107e+01       13.51387448    -27.44759505     -6.37304611  
H      0.30313508      4.46317385     -0.16205668      1.13151918e+01    1.02672294e+01    9.98271737e+00       35.78168561    -64.02607675    -13.41508741  
H      0.43620709      4.43551756     -0.08902920     -1.56878238e+00    1.44716415e+01    6.61115664e+00       52.34717109    -57.78784205     -7.16417030  
H      0.37003994      4.52089137     -0.04285946      2.20961295e+01   -1.83887735e+00    6.17008258e+00       25.91664365    -21.19096954     -1.20753820  
H      0.41030392      4.53226259     -0.13852425      5.42683385e+00    6.69557256e-01    3.97013510e+00       34.98221671    -23.23461893     -1.91289145  
H      0.04628438     -9.77988753      0.37068956      1.76185499e+01    5.32621388e+00   -4.43660068e-01       -0.00000002     -0.00000197      0.00000007  
H      0.09197516     -9.79564191      0.31407112     -3.03200390e+00   -1.14935228e+01   -3.45498568e+00       -0.00000001     -0.00000200      0.00000006  
H      0.08239111     -9.82305696      0.22818177      5.14158740e+00    1.90228718e+01    3.87050259e+00       -0.00000002     -0.00000196      0.00000004  
H     -0.10402718     -9.83360210      0.10546396      3.39926718e+00    8.48618641e+00    2.10142849e+00       -0.00000004     -0.00000196      0.00000002  
H     -0.02893267     -9.82235678      0.13947352      4.47790988e+00   -1.02110073e+01    9.33247896e+00       -0.00000004     -0.00000198      0.00000003  
H      0.04583685     -9.78080271      0.08703476      8.65165598e-01   -1.07075606e+01    5.58055096e+00       -0.00000002     -0.00000190      0.00000002  
H      0.10364443     -9.68750326      0.03424813     -2.63310440e+00    5.32748469e+00    7.59804729e+00       -0.00000001     -0.00000188      0.00000003  
H      0.10879677     -9.88250310      0.09661350      2.41342819e+00   -2.63430583e+00   -1.30695240e-01       -0.00000001     -0.00000175      0.00000003  
H      0.05389168     -9.87072650      0.03949413     -1.04877781e+01   -2.45588366e+00    2.28779029e+00       -0.00000001     -0.00000183      0.00000002  
H     -0.00469578     -9.87977772     -0.04969154     -1.46023560e+01   -9.26131647e+00    2.69773710e+00       -0.00000000     -0.00000177      0.00000001  
H     -0.08580493     -9.89738752     -0.11032644     -5.07295470e+00   -5.36571606e+00   -1.74146407e+00       -0.00000001     -0.00000180      0.00000000  
H     -0.01089186     -9.80054378     -0.10691135     -9.64706025e+00   -1.61333261e+00    8.92619527e+00        0.00000000     -0.00000184      0.00000000  
H     -0.06085276     -9.78584000     -0.07485689      6.65175199e+00   -7.16921055e+00    9.73866461e+00        0.00000001     -0.00000188     -0.00000000  
H     -0.10984796     -9.73891187     -0.10961359      1.58767882e+00   -1.87904748e+00    8.09618741e+00        0.00000001     -0.00000194      0.00000000  
H     -0.02600354     -9.77282688     -0.05452809     -7.18443275e+00   -1.11615349e+01    1.03178216e+01        0.00000002     -0.00000192      0.00000000  
H      0.02389772     -9.79378297      0.08371271     -4.86640017e+00   -2.60813032e+00   -7.61944936e+00        0.00000002     -0.00000192      0.00000002  
H     -0.04566854     -9.69056797      0.16934261      7.05834708e+00    1.68564379e+00   -1.05191278e+00        0.00000000     -0.00000194      0.00000003  
H     -0.00311938     -9.50544194      0.29811884      2.97557996e+00   -2.16342095e-01    1.40228187e+00        0.00000002     -0.00000215      0.00000005  
H     -0.03049117     -9.55557425      0.24750094      1.77508260e-01    5.71034335e+00   -3.74627847e+00        0.00000000     -0.00000219      0.00000003  
H     -0.04094474     -9.54114905      0.19862966      6.93561733e+00    1.41803706e+01    5.46481302e+00        0.00000001     -0.00000225      0.00000003  
H     -0.01448501     -9.54937953      0.14538364      1.43770883e+01   -6.18505379e+00   -8.99407913e-02        0.00000002     -0.00000225      0.00000002  
H     -0.10044257     -9.52736317      0.17471906      6.71663878e+00    4.62717115e+00   -5.50697294e+00       -0.00000000     -0.00000232      0.00000002  
H     -0.07457298     -9.58771218      0.14598762      1.99107368e+00   -8.09729637e+00    4.59998989e+00       -0.00000001     -0.00000223      0.00000002  
H     -0.15145048     -9.45976629      0.13182484     -4.89542724e+00    9.05279261e+00    2.97919644e+00       -0.00000004     -0.00000233      0.00000001  
H     -0.13422024     -9.55820740      0.13865145      7.63928715e+00    4.34153281e+00   -7.39353634e+00       -0.00000004     -0.00000222      0.00000001  
H     -0.16580816     -9.69709306      0.15418320     -6.24446555e+00    5.59293154e+00    2.88058978e+00       -0.00000005     -0.00000206      0.00000003  
H     -0.11743568     -9.64201273      0.15425254     -1.00370186e+01   -1.05263856e+01   -7.91462637e-01       -0.00000004     -0.00000200      0.00000003  
H     -0.11628887     -9.61386172      0.12375656     -7.69700069e+00   -4.92849654e+00   -8.02342315e+00       -0.00000004     -0.00000209      0.00000003  
H     -0.02908752     -9.63613274      0.16886347      9.58778668e+00    7.21066081e+00   -4.77408720e-01       -0.00000002     -0.00000212      0.00000004  
H     -0.04664060     -9.75375638      0.17708279      2.43135563e+01    5.38005683e-01   -3.18880573e+00       -0.00000003     -0.00000207      0.00000003  
H     -0.05418446     -9.73202078      0.28426103      4.06872983e+00   -3.53110759e+00   -1.71891235e+01       -0.00000002     -0.00000207      0.00000005  
H      0.03206198     -9.75741077      0.28640421      9.08665132e+00    8.46786312e+00    3.15581865e+00       -0.00000001     -0.00000205      0.00000006  
