3
100000  xi=   0.97224722  Mean pot=  -100.60925274  Cent pot=   -99.73662683 kcal/mol
H     -0.92983841     -0.36270268      0.21813087       0.11990759
H     -0.12201671     -0.08234435     -0.03499081       0.22123290
H      1.05185512      0.44504703     -0.18314006       0.22769689
3
200000  xi=   0.96745537  Mean pot=  -100.80175245  Cent pot=  -102.94506977 kcal/mol
H     -0.11486945     -0.48527940     -0.82007323       0.19790687
H      0.00625015     -0.12305624     -0.11327432       0.16412952
H      0.10861929      0.60833563      0.93334754       0.14694045
3
300000  xi=   0.98202895  Mean pot=   -98.18988288  Cent pot=   -99.81463211 kcal/mol
H     -0.25753266      0.53414665      0.68499016       0.17763529
H     -0.14887737      0.10565379     -0.03834594       0.19467184
H      0.40641003     -0.63980044     -0.64664422       0.19731081
3
400000  xi=   0.97965567  Mean pot=   -99.44187424  Cent pot=  -100.63293332 kcal/mol
H     -0.63057599     -0.28061395      0.63149163       0.20731324
H     -0.00800064     -0.12926957      0.07369378       0.17989467
H      0.63857663      0.40988352     -0.70518541       0.17855517
3
500000  xi=   0.97805075  Mean pot=   -99.79614568  Cent pot=  -101.23179975 kcal/mol
H     -0.41003045     -0.68345052      0.44983326       0.15329939
H     -0.04417747     -0.03035524      0.12574933       0.17549527
H      0.45420792      0.71380576     -0.57558259       0.19763009
3
600000  xi=   0.96982299  Mean pot=  -101.09809422  Cent pot=  -102.06478040 kcal/mol
H      0.06358521     -0.69074086     -0.65895494       0.22858230
H      0.12761929     -0.06346962     -0.12743627       0.27328707
H     -0.19120450      0.75421048      0.78639122       0.18514556
3
700000  xi=   0.97347174  Mean pot=   -99.52692245  Cent pot=  -100.42703857 kcal/mol
H     -0.15649296     -0.87685102     -0.37523162       0.21837475
H     -0.11730476     -0.14618640      0.08238245       0.29469665
H      0.27379772      1.02303741      0.29284917       0.16364004
3
800000  xi=   0.97529960  Mean pot=   -99.57635312  Cent pot=   -99.87282002 kcal/mol
H      0.62231033      0.09560232     -0.77686439       0.16353729
H      0.03105529     -0.04979529     -0.13227163       0.12211294
H     -0.65336562     -0.04580702      0.90913602       0.18888748
3
900000  xi=   0.96755852  Mean pot=   -98.65991449  Cent pot=  -100.80607176 kcal/mol
H     -0.76491683     -0.18158498      0.47614040       0.16568799
H     -0.12062037     -0.28082984     -0.04256084       0.12315450
H      0.88553720      0.46241482     -0.43357956       0.17199323
3
1000000  xi=   0.98333488  Mean pot=   -98.40075652  Cent pot=   -95.93404478 kcal/mol
H      1.02614690     -0.18610574     -0.08617327       0.21584952
H      0.08573556      0.02937828     -0.00661497       0.22990459
H     -1.11188246      0.15672745      0.09278824       0.18965493
3
1100000  xi=   0.98091598  Mean pot=   -98.90462743  Cent pot=   -99.34802540 kcal/mol
H     -0.52818092      0.37206702      0.66261956       0.19169787
H     -0.05649376      0.19455317     -0.04522858       0.22406881
H      0.58467469     -0.56662018     -0.61739098       0.19557443
3
1200000  xi=   0.96684110  Mean pot=   -98.23825269  Cent pot=  -102.07494523 kcal/mol
H     -0.04637568     -0.30872481      0.93478883       0.21601893
H      0.10412762      0.00966151      0.17355071       0.17100651
H     -0.05775194      0.29906330     -1.10833953       0.24682297
3
1300000  xi=   0.96885909  Mean pot=   -98.28951730  Cent pot=  -102.41223584 kcal/mol
H     -0.17444200     -0.92131523     -0.13891770       0.14526490
H      0.00742876     -0.16744434      0.09597505       0.19525528
H      0.16701324      1.08875957      0.04294265       0.21885716
3
1400000  xi=   0.98104710  Mean pot=   -98.09296921  Cent pot=   -98.97162610 kcal/mol
H     -0.02499864      0.72530511      0.43966848       0.18789185
H     -0.04904694      0.11158315     -0.01277009       0.23839583
H      0.07404558     -0.83688826     -0.42689839       0.19192587
3
1500000  xi=   0.98188610  Mean pot=   -97.40750577  Cent pot=   -97.86945715 kcal/mol
H      0.08627726      0.55129468     -0.77686430       0.15223028
H      0.14265386     -0.09248339     -0.13700725       0.19671383
H     -0.22893112     -0.45881129      0.91387155       0.19711330
3
1600000  xi=   0.97110919  Mean pot=   -96.03422607  Cent pot=   -97.46347885 kcal/mol
H     -0.82752063     -0.02177271      0.18309811       0.17902786
H     -0.10731774     -0.35758504     -0.11993225       0.14560953
H      0.93483837      0.37935775     -0.06316587       0.22603269
3
1700000  xi=   0.98563768  Mean pot=  -101.17434035  Cent pot=   -98.81397420 kcal/mol
H      0.62170334      0.73615848      0.17730132       0.25336026
H      0.02997990      0.07930609     -0.06723891       0.16065260
H     -0.65168324     -0.81546457     -0.11006241       0.20437649
3
1800000  xi=   0.98176539  Mean pot=   -99.00925478  Cent pot=  -100.69377899 kcal/mol
H      0.01101258     -0.69641229      0.59387110       0.13428154
H     -0.03763215     -0.12070183     -0.00928628       0.17937021
H      0.02661956      0.81711412     -0.58458482       0.13203410
3
1900000  xi=   0.97342175  Mean pot=   -99.22734267  Cent pot=  -101.82111176 kcal/mol
H     -0.88731207     -0.27129973      0.02517205       0.21630255
H     -0.15198935      0.06705664      0.00582069       0.23610588
H      1.03930142      0.20424309     -0.03099274       0.20570728
3
2000000  xi=   0.97561829  Mean pot=   -98.99297366  Cent pot=  -101.32349728 kcal/mol
H      0.19411994      0.05772385     -0.87515327       0.17205720
H     -0.06537324      0.02303894     -0.13228722       0.22904777
H     -0.12874670     -0.08076279      1.00744049       0.17173723
