3
100000  xi=   0.34357452  Mean pot=  -106.22480550  Cent pot=  -109.49158496 kcal/mol
H      1.24128043      3.23638629     -1.31074529       0.19793258
H      0.50432554      3.14698819     -1.37923230       0.17968366
H     -1.74560597     -6.38337448      2.68997759       0.19078695
3
200000  xi=   0.35387278  Mean pot=  -104.62750422  Cent pot=  -107.66535847 kcal/mol
H     -3.32819012     -0.23770370     -0.85757638       0.15278403
H     -3.53725583      0.34817802     -0.58398772       0.17979898
H      6.86544595     -0.11047432      1.44156410       0.14794901
3
300000  xi=   0.34493248  Mean pot=  -105.89827894  Cent pot=  -109.15001615 kcal/mol
H     -0.18878658      3.04628990      1.29777232       0.21853040
H     -0.32958127      3.69845077      1.04480260       0.16030488
H      0.51836785     -6.74474067     -2.34257492       0.22944133
3
400000  xi=   0.34992659  Mean pot=  -105.94870697  Cent pot=  -109.17840387 kcal/mol
H      0.45374395     -2.50618903      2.76888373       0.22245553
H      0.86549993     -1.86186782      2.67617844       0.25619625
H     -1.31924388      4.36805685     -5.44506217       0.21096399
3
500000  xi=   0.34645789  Mean pot=  -107.71025417  Cent pot=  -109.43925741 kcal/mol
H      3.77892290     -0.00773549     -1.12170681       0.14655523
H      3.02895713     -0.08132818     -1.13391041       0.11772938
H     -6.80788003      0.08906367      2.25561722       0.12173992
3
600000  xi=   0.35459278  Mean pot=  -102.40074167  Cent pot=  -109.42050101 kcal/mol
H     -2.46637349     -2.96877437     -0.41894291       0.14471005
H     -1.88095709     -2.53321647     -0.61475135       0.18553441
H      4.34733059      5.50199084      1.03369426       0.15992290
3
700000  xi=   0.35637239  Mean pot=  -107.19421980  Cent pot=  -109.39784125 kcal/mol
H      3.02623141     -1.07077334      0.22348295       0.21327816
H      3.52920121     -1.40720097      0.62526050       0.14967836
H     -6.55543262      2.47797431     -0.84874344       0.20358842
3
800000  xi=   0.35398762  Mean pot=  -107.37290466  Cent pot=  -108.76349954 kcal/mol
H      3.04516286     -0.30767232     -1.71386561       0.35057473
H      2.66422215     -0.54618183     -2.25228909       0.21382521
H     -5.70938502      0.85385416      3.96615470       0.15416977
3
900000  xi=   0.34801202  Mean pot=  -104.23151906  Cent pot=  -108.50857665 kcal/mol
H      1.48526219      0.76566252      3.09085817       0.15070901
H      1.10313956      0.17013204      3.44936480       0.15828202
H     -2.58840175     -0.93579455     -6.54022296       0.19684582
3
1000000  xi=   0.34396364  Mean pot=  -106.41248991  Cent pot=  -109.49463183 kcal/mol
H      2.08261366      2.19634913     -1.52196332       0.19751024
H      1.82292927      2.59059535     -2.09750876       0.20444087
H     -3.90554293     -4.78694448      3.61947208       0.15552961
3
1100000  xi=   0.36089757  Mean pot=  -106.38993694  Cent pot=  -108.45821951 kcal/mol
H     -3.25324371     -1.03041831     -0.63720695       0.19081177
H     -3.36413340     -0.94880170      0.04310298       0.21549593
H      6.61737710      1.97922002      0.59410397       0.19015808
3
1200000  xi=   0.34309487  Mean pot=  -105.96864193  Cent pot=  -109.29739342 kcal/mol
H     -0.09994476     -2.14232103     -2.88564836       0.14553841
H      0.34387643     -1.59419385     -3.17977829       0.17175627
H     -0.24393167      3.73651488      6.06542665       0.17812196
3
1300000  xi=   0.35576975  Mean pot=  -105.01929672  Cent pot=  -108.72892374 kcal/mol
H     -0.78210654      1.52281787     -3.15485635       0.16479712
H     -1.34017958      0.97845547     -3.04855282       0.16854240
H      2.12228612     -2.50127333      6.20340917       0.16679176
3
1400000  xi=   0.34120337  Mean pot=  -105.80041472  Cent pot=  -109.49773412 kcal/mol
H      3.10297445      0.79790927     -1.90114237       0.24615523
H      2.49884900      0.68773546     -2.31754607       0.23093135
H     -5.60182345     -1.48564474      4.21868844       0.24852115
3
1500000  xi=   0.35589183  Mean pot=  -107.13967681  Cent pot=  -109.38582129 kcal/mol
H     -0.13343148     -3.49956054      0.74357314       0.18680527
H     -0.00351280     -3.46849274     -0.00293255       0.16182925
H      0.13694428      6.96805327     -0.74064059       0.22077410
3
1600000  xi=   0.33402676  Mean pot=  -107.03364979  Cent pot=  -109.12769357 kcal/mol
H      2.26324754      0.50338997     -2.61120166       0.17818008
H      2.63009059     -0.10016810     -2.70632359       0.20636589
H     -4.89333814     -0.40322188      5.31752525       0.22416939
3
1700000  xi=   0.36334991  Mean pot=  -101.69487709  Cent pot=  -106.15145870 kcal/mol
H      2.77921875      1.14938125      1.57922507       0.19226581
H      3.31758063      0.55269270      1.33063038       0.20405456
H     -6.09679938     -1.70207395     -2.90985545       0.15846012
3
1800000  xi=   0.34658200  Mean pot=  -105.58053297  Cent pot=  -109.42926226 kcal/mol
H     -0.49211164      2.42210161      3.01788151       0.21456007
H     -0.48152682      2.30671918      2.27216111       0.14243564
H      0.97363846     -4.72882079     -5.29004262       0.20030058
3
1900000  xi=   0.34411908  Mean pot=  -107.52319680  Cent pot=  -107.80125887 kcal/mol
H      1.54986767     -1.87662684      2.34799865       0.21895515
H      2.17082588     -1.71595797      2.57908440       0.19806736
H     -3.72069355      3.59258481     -4.92708305       0.17412406
3
2000000  xi=   0.36112400  Mean pot=  -107.83665580  Cent pot=  -109.48489649 kcal/mol
H      2.93966636      1.73730015     -0.01671802       0.17775897
H      3.24208419      1.41102912      0.58366141       0.13310845
H     -6.18175055     -3.14832927     -0.56694339       0.16856450
