96
100000  xi=   0.25381661  Mean pot=  -107.81721501  Cent pot=  -109.20189907 kcal/mol
H      1.82388708      3.42563371     -0.57321264      1.65508331e+01   -7.20324561e+00   -8.12628240e-01       14.36115674      0.76522769     10.59212194  
H      1.77139957      3.43963351     -0.48694085     -1.07820326e+01    4.13373885e+00    4.60008964e+00        8.16040000     -1.21243481      3.79572613  
H      1.82276501      3.51381576     -0.42731716     -9.06641488e+00    4.70569396e+00    6.22977208e+00      -20.71429550      6.49493546     -7.01548510  
H      1.75548021      3.43550052     -0.41411013      6.17791581e+00   -1.25300505e+00   -6.37050561e+00      -19.17122212      1.53218715     -6.43714188  
H      1.74385444      3.38696732     -0.37049249      4.52902997e+00   -1.85932443e+00    1.26338696e+01      -63.50453923     -0.75660847    -12.44900671  
H      1.74639942      3.60295455     -0.39709927     -4.36941811e+00    1.17085472e+01    8.35623554e+00       -9.84118619      1.95244368     -2.13977891  
H      1.73594988      3.71668590     -0.53189778      6.47273703e+00    7.56470283e+00    7.03408590e+00      -48.31033484     10.45616628    -16.77418036  
H      1.74663577      3.68877483     -0.55834618      4.57698728e+00   -6.92426664e+00   -7.76243550e+00      -37.89448624     10.44748446    -20.25248019  
H      1.73285734      3.62028358     -0.46097419      1.97912759e+00    6.00332102e+00   -7.38935341e+00       -9.96438188      2.56122488     -3.17354203  
H      1.56317044      3.68482540     -0.37868723      7.32464049e+00   -7.15459767e+00   -1.42533095e+01      -28.04435227      7.85763658     -5.11989365  
H      1.60560251      3.61348991     -0.38419142     -5.62339076e+00    1.96971354e+00   -1.88761283e+00       71.97080308    -16.65114097      8.35562426  
H      1.55895206      3.68865086     -0.42023235      7.10247649e+00   -5.00825811e+00    8.56753312e+00       57.68560759    -17.50021132     13.51317529  
H      1.48884012      3.54259393     -0.46907199      1.15363165e+01   -6.46415251e+00   -1.18039448e+01        8.39016095      0.09889651      5.07438600  
H      1.49043879      3.52311602     -0.62656142     -6.02332873e+00    2.68124345e+00   -1.85236877e+01      -14.08965299     -0.18874396    -15.01746995  
H      1.50210522      3.57341957     -0.65088897     -2.15895591e+01    1.05361455e+01    6.45657896e+00      -34.46211603      7.75692321    -52.40870641  
H      1.61906059      3.47315103     -0.55592083      1.76003512e+00    4.46312651e+00    1.01233967e+01       12.15474972      1.06228921     19.25495119  
H      1.57060252      3.55829289     -0.56058661     -9.46142926e+00   -2.71466427e+00   -8.67312949e+00      -25.31860134     -1.07186984    -24.95882242  
H      1.56055724      3.44366927     -0.53502516      9.17670301e-01    1.52436232e+00    4.69771639e+00      -20.13552634     -8.03116715    -22.97974317  
H      1.60262328      3.46766921     -0.47551081      2.18869740e+00   -1.08646265e+01   -4.03137425e+00       -2.00671183      0.01620482     -2.13405049  
H      1.55599524      3.51822888     -0.42856019     -9.16797083e+00    1.04301425e+00   -3.55968162e+00        8.15387859     -2.57903329      6.83449874  
H      1.57170625      3.45246480     -0.49024207      4.28942651e+00    3.62445733e+00   -2.89537865e+00      -21.17985942      2.50320667    -26.09324577  
H      1.55620933      3.40706655     -0.51073983      8.48524261e+00    3.75752419e+00    6.12533601e+00      -49.83378095      3.41310032    -54.46745250  
H      1.71761072      3.51317240     -0.49835952      1.11147126e+01    4.01829745e+00   -1.04419205e+01      -19.52137395      7.64973295    -26.01451697  
H      1.77163227      3.44049793     -0.41623357      6.46581101e+00    6.60107174e+00    2.11362534e+00       36.75682323      3.78464916     43.62180579  
H      1.82614943      3.41839372     -0.42913776      1.56256559e+00    1.17449778e+01   -2.29763562e+00        6.01432630      0.80010487      6.85253519  
H      1.96207434      3.41146519     -0.52249388      8.21094809e+00   -3.02369893e+00    6.51372641e+00      151.96535126     52.15673429    241.80648560  
H      1.84067922      3.52608306     -0.58707317     -1.30901432e+01   -1.11246816e+01    1.47045407e+00       -9.49160030     -2.32047075    -12.65626686  
H      1.81506441      3.52727840     -0.51231847     -1.45439321e+00   -9.66213932e-01   -1.65762224e+00        9.60103937     -0.54847362      8.90805744  
H      1.82579487      3.48533402     -0.59880229     -4.42573143e+00    5.73795337e+00    1.62068655e+01       -6.83278149      0.49651117     -8.66866964  
H      1.86052789      3.36894718     -0.50712202      5.75736590e+00    5.30151498e+00    5.62835873e+00       38.88146604      3.66063465     37.97561461  
H      1.77085263      3.37845482     -0.47308043      4.41402731e+00   -3.05479997e+00   -3.26887291e+00       37.82749346      2.88561564     32.58694809  
H      1.74738888      3.32126801     -0.59305412      1.28516382e+01    3.83377258e+00   -6.25152300e+00      -25.09362678     -5.17397138    -21.50524995  
H      2.40396433      3.45654273     -0.14537454     -9.19201209e+00    8.60208681e+00   -9.52867941e+00      -14.36115321     -0.76522150    -10.59212264  
H      2.42830851      3.34203269     -0.18138631     -8.29832585e+00   -8.13748151e+00    1.10205091e+00       -8.16039635      1.21244125     -3.79572681  
H      2.52367690      3.29404604     -0.18993345     -4.00217255e+00   -6.70966587e+00   -1.37370793e+01       20.71429905     -6.49492928      7.01548452  
H      2.48172192      3.37745854     -0.17025920     -2.88012661e+00    6.06795688e+00   -7.24251971e+00       19.17122559     -1.53218120      6.43714140  
H      2.57914528      3.39691923     -0.20674765     -5.24437482e+00    1.01480542e+01    4.82571380e+00       63.50454276      0.75661459     12.44900619  
H      2.47022837      3.45935066     -0.23971647      4.25488405e+00    3.29055495e-01    5.54359611e+00        9.84118960     -1.95243763      2.13977843  
H      2.49751002      3.55185581     -0.26747100      1.55128060e+00   -1.27263110e+01   -3.68082029e+00       48.31033825    -10.45616018     16.77417985  
H      2.43841751      3.49805113     -0.18862761      8.68822206e-01   -2.53898490e+00   -1.87937519e-01       37.89448938    -10.44747874     20.25247971  
H      2.43178695      3.44063235     -0.23837313     -1.41288661e+01   -6.85300913e+00   -2.36204902e+00        9.96438515     -2.56121902      3.17354157  
H      2.30502452      3.47696833     -0.24325128     -6.36656555e+00    6.73241935e+00    7.20362449e+00       28.04435549     -7.85763069      5.11989326  
H      2.25507873      3.46322728     -0.30878891      8.28191108e+00   -1.74954919e+00    7.17624516e+00      -71.97079984     16.65114680     -8.35562463  
H      2.19464417      3.49579949     -0.27131792     -8.96311190e+00    1.34310648e+01    7.49264078e+00      -57.68560422     17.50021751    -13.51317568  
H      2.11364374      3.54995835     -0.09118942     -5.38656026e+00    2.57888626e+00   -1.11094962e+01       -8.39015744     -0.09889007     -5.07438640  
H      2.01639818      3.53016187     -0.06596719     -4.20847303e+00   -7.56144760e+00   -1.05108686e+00       14.08965663      0.18875059     15.01746952  
H      1.96422013      3.46940425      0.05187819      3.46342836e+00    1.92138065e+01   -4.46724054e+00       34.46211966     -7.75691648     52.40870597  
H      2.00100933      3.50653212      0.04914350      4.73851727e+00   -1.61749291e+00    1.07504337e+01      -12.15474610     -1.06228252    -19.25495169  
H      2.13435211      3.58215945     -0.00484799      3.74599201e+00   -1.32732793e+01    6.30335437e+00       25.31860493      1.07187635     24.95882186  
H      2.06118389      3.64334709      0.03631676     -8.08921295e+00    1.56399828e+00   -4.02843170e-01       20.13553044      8.03117454     22.97974244  
H      2.11310817      3.46354788      0.06736693     -6.92797403e+00   -3.00854675e+00    5.30134899e+00        2.00671596     -0.01619751      2.13404985  
H      2.09893033      3.34650077      0.02652267     -4.49685639e+00   -5.15785964e+00    4.08067988e+00       -8.15387432      2.57904082     -6.83449936  
H      2.06749652      3.39386841      0.12056349     -4.38027858e+00   -7.90027060e+00   -2.84663144e+00       21.17986372     -2.50319903     26.09324518  
H      2.14715860      3.36659267      0.13515737     -7.54472624e+00    3.44638277e+00    3.57567210e+00       49.83378530     -3.41309276     54.46745189  
H      2.17824560      3.33266606      0.11549034     -1.08846651e+00    3.47138241e+00   -5.15630108e+00       19.52137804     -7.64972590     26.01451643  
H      2.21179023      3.48581854      0.10613165      7.29329025e-01    1.52565218e+01   -1.33576767e+00      -36.75681900     -3.78464207    -43.62180631  
H      2.30647649      3.48229288      0.11813207      3.55839849e-02   -2.17098308e+00   -2.77651839e+00       -6.01432231     -0.80009818     -6.85253568  
H      2.25483831      3.51194607     -0.05664934      6.90943983e+00   -2.74699694e-01   -5.72235472e+00     -151.96534765    -52.15672824   -241.80648612  
H      2.29316515      3.63670526      0.01627940      1.88298715e+01    1.69407576e+00   -1.39307314e+01        9.49160382      2.32047680     12.65626634  
H      2.34722046      3.49687800     -0.01857216      3.62424569e+00   -1.52910593e+01    8.92071092e+00       -9.60103565      0.54847993     -8.90805795  
H      2.29304924      3.45138074     -0.00600234      4.81733118e+00    2.00009939e+01    1.19879961e+00        6.83278530     -0.49650460      8.66866906  
H      2.35078501      3.41510415     -0.02828677      9.15417903e-01    1.53048488e+01   -1.01727268e+01      -38.88146234     -3.66062832    -37.97561516  
H      2.29326332      3.41830612     -0.02304344      1.20636172e+01    2.18652406e+00    6.54954580e-01      -37.82748971     -2.88560915    -32.58694871  
H      2.33887384      3.44322440     -0.08615128     -2.99897952e+00   -1.59951932e+00    4.50717879e+00       25.09363054      5.17397799     21.50524925  
H     -3.88780611     -7.03595311      0.80950271      1.65848341e+01    5.02021309e+00   -3.76854913e-01       -0.00000353     -0.00000620      0.00000070  
H     -3.84210048     -7.05173856      0.75283337     -4.06700234e+00   -1.17968386e+01   -3.38379049e+00       -0.00000365     -0.00000644      0.00000068  
H     -3.85167499     -7.07911248      0.66699042      4.10576522e+00    1.87160051e+01    3.93769459e+00       -0.00000354     -0.00000618      0.00000058  
H     -4.03812399     -7.08969493      0.54424634      2.36609759e+00    8.18254012e+00    2.17088747e+00       -0.00000347     -0.00000595      0.00000048  
H     -3.96298792     -7.07842866      0.57825320      3.44115294e+00   -1.05164587e+01    9.40217219e+00       -0.00000354     -0.00000611      0.00000051  
H     -3.88825676     -7.03687206      0.52584522     -1.68278668e-01   -1.10132321e+01    5.64758825e+00       -0.00000342     -0.00000605      0.00000049  
H     -3.83042692     -6.94359769      0.47301013     -3.66847119e+00    5.02398533e+00    7.66926726e+00       -0.00000341     -0.00000610      0.00000051  
H     -3.82527322     -7.13855830      0.53542532      1.37794547e+00   -2.94119836e+00   -6.37747287e-02       -0.00000314     -0.00000571      0.00000049  
H     -3.88020281     -7.12682184      0.47827156     -1.15211458e+01   -2.75930457e+00    2.35767813e+00       -0.00000327     -0.00000586      0.00000046  
H     -3.93875086     -7.13584551      0.38909325     -1.56391245e+01   -9.56711833e+00    2.76699076e+00       -0.00000322     -0.00000589      0.00000039  
H     -4.01990102     -7.15346094      0.32848050     -6.10618311e+00   -5.67102991e+00   -1.67412284e+00       -0.00000323     -0.00000583      0.00000037  
H     -3.94495915     -7.05663536      0.33185140     -1.06827763e+01   -1.91707832e+00    8.99735004e+00       -0.00000337     -0.00000619      0.00000039  
H     -3.99492693     -7.04189574      0.36395719      5.61663345e+00   -7.47605105e+00    9.80538915e+00       -0.00000351     -0.00000644      0.00000040  
H     -4.04393949     -6.99500906      0.32915931      5.54055731e-01   -2.18230769e+00    8.16646540e+00       -0.00000364     -0.00000662      0.00000044  
H     -3.96005933     -7.02889102      0.38426195     -8.22113802e+00   -1.14676548e+01    1.03866209e+01       -0.00000363     -0.00000673      0.00000044  
H     -3.91020016     -7.04986067      0.52251542     -5.89947527e+00   -2.91307278e+00   -7.55174484e+00       -0.00000363     -0.00000669      0.00000050  
H     -3.97973219     -6.94665623      0.60810710      6.02231827e+00    1.38160385e+00   -9.80909291e-01       -0.00000360     -0.00000651      0.00000057  
H     -3.93719790     -6.76149915      0.73693422      1.94083482e+00   -5.23056740e-01    1.46889363e+00       -0.00000410     -0.00000738      0.00000074  
H     -3.96457923     -6.81167258      0.68626992     -8.56414744e-01    5.40717503e+00   -3.67566185e+00       -0.00000413     -0.00000730      0.00000064  
H     -3.97500208     -6.79721006      0.63742491      5.89904504e+00    1.38739814e+01    5.53316207e+00       -0.00000427     -0.00000753      0.00000062  
H     -3.94858388     -6.80546148      0.58418160      1.33440984e+01   -6.48963268e+00   -2.18262520e-02       -0.00000430     -0.00000764      0.00000058  
H     -4.03450307     -6.78344760      0.61348624      5.68034091e+00    4.32280201e+00   -5.43620205e+00       -0.00000436     -0.00000755      0.00000061  
H     -4.00865574     -6.84377151      0.58480326      9.56694175e-01   -8.40382468e+00    4.66657755e+00       -0.00000409     -0.00000705      0.00000053  
H     -4.08553460     -6.71586486      0.57059066     -5.92968907e+00    8.74964161e+00    3.05008442e+00       -0.00000422     -0.00000709      0.00000052  
H     -4.06827985     -6.81426583      0.57745164      6.60290933e+00    4.03492368e+00   -7.32561702e+00       -0.00000398     -0.00000669      0.00000049  
H     -4.09990717     -6.95317901      0.59297604     -7.27744413e+00    5.28869185e+00    2.94914484e+00       -0.00000361     -0.00000605      0.00000052  
H     -4.05149367     -6.89809304      0.59302323     -1.10735351e+01   -1.08311078e+01   -7.20996316e-01       -0.00000352     -0.00000605      0.00000052  
H     -4.05037566     -6.86992387      0.56257145     -8.73103303e+00   -5.23478683e+00   -7.95676983e+00       -0.00000372     -0.00000631      0.00000051  
H     -3.96316743     -6.89223072      0.60762702      8.55316224e+00    6.90746128e+00   -4.06324924e-01       -0.00000381     -0.00000657      0.00000059  
H     -3.98070317     -7.00981294      0.61588752      2.32774314e+01    2.31235460e-01   -3.12127608e+00       -0.00000370     -0.00000634      0.00000055  
H     -3.98828278     -6.98811041      0.72304862      3.03569161e+00   -3.83503073e+00   -1.71201144e+01       -0.00000375     -0.00000649      0.00000062  
H     -3.90199426     -7.01348687      0.72517913      8.04998091e+00    8.16277816e+00    3.22592171e+00       -0.00000376     -0.00000661      0.00000070  
