3
100000  xi=   0.16958393  Mean pot=  -104.73074276  Cent pot=  -108.82364194 kcal/mol
H     -1.36485990      3.02029135      2.74354906       0.20159273
H     -1.98010926      3.39346268      2.43280108       0.21099496
H      3.34496916     -6.41375402     -5.17635014       0.19078871
3
200000  xi=   0.17749457  Mean pot=  -103.97449036  Cent pot=  -109.40997140 kcal/mol
H      1.04027954     -1.26206998     -4.13543479       0.15729631
H      1.63018656     -0.87101772     -3.96796022       0.18035896
H     -2.67046611      2.13308770      8.10339501       0.15756297
3
300000  xi=   0.17127429  Mean pot=  -106.88461472  Cent pot=  -109.49609366 kcal/mol
H      1.15868872      3.61275844      1.79977130       0.11792921
H      0.75075079      4.09321061      2.18681277       0.17743912
H     -1.90943951     -7.70596906     -3.98658407       0.18522848
3
400000  xi=   0.17196419  Mean pot=  -107.42144005  Cent pot=  -108.11616872 kcal/mol
H      2.44246973      0.23418562     -3.96194398       0.13293885
H      2.48451538      0.57393937     -3.36601358       0.19150405
H     -4.92698511     -0.80812498      7.32795756       0.22257087
3
500000  xi=   0.17030682  Mean pot=  -104.49224865  Cent pot=  -107.13211161 kcal/mol
H     -3.60919404      1.36697705      2.06027808       0.17031050
H     -4.11699243      0.79457349      1.75469483       0.12353074
H      7.72618648     -2.16155054     -3.81497292       0.16768668
3
600000  xi=   0.15618607  Mean pot=  -106.63340658  Cent pot=  -109.03731656 kcal/mol
H      4.10104877      0.11102217     -1.13854735       0.19912108
H      4.71709602     -0.02083703     -0.81233289       0.20148149
H     -8.81814479     -0.09018514      1.95088024       0.17022047
3
700000  xi=   0.16808279  Mean pot=  -104.57502113  Cent pot=  -109.18328683 kcal/mol
H     -2.49397024      1.63088059      3.07057705       0.21945953
H     -2.80332037      2.26133859      2.93690503       0.19243844
H      5.29729061     -3.89221919     -6.00748208       0.15601035
3
800000  xi=   0.15705901  Mean pot=  -106.31850958  Cent pot=  -109.49745618 kcal/mol
H     -0.01920407      2.63395774     -4.05359403       0.18785926
H     -0.33020262      2.12437730     -3.61500895       0.19085243
H      0.34940669     -4.75833503      7.66860298       0.14264289
3
900000  xi=   0.17650061  Mean pot=  -107.08033050  Cent pot=  -109.34399041 kcal/mol
H     -3.03788011      2.30996555     -2.81200560       0.17756506
H     -2.42105325      2.24060844     -2.44175041       0.21304310
H      5.45893336     -4.55057399      5.25375601       0.22117998
3
1000000  xi=   0.17532626  Mean pot=  -106.90565454  Cent pot=  -109.43872840 kcal/mol
H      0.87523949      3.50405766     -2.07163884       0.16372821
H      1.50361697      3.74137220     -2.41356913       0.19750487
H     -2.37885646     -7.24542986      4.48520797       0.22272306
3
1100000  xi=   0.16800648  Mean pot=  -106.94407289  Cent pot=  -109.10814504 kcal/mol
H     -2.91606174     -0.18531713     -3.82311226       0.14672819
H     -2.23252555     -0.21624562     -3.46271696       0.16779141
H      5.14858729      0.40156276      7.28582922       0.19212726
3
1200000  xi=   0.17025043  Mean pot=  -106.15393263  Cent pot=  -108.87454285 kcal/mol
H      1.52773536      3.83647536     -0.69529441       0.16375382
H      1.49091132      4.30455953     -1.22038663       0.16707194
H     -3.01864669     -8.14103490      1.91568103       0.19748462
3
1300000  xi=   0.17976110  Mean pot=  -106.38431807  Cent pot=  -108.63439348 kcal/mol
H      3.35624435      1.32135785     -2.71874765       0.19482958
H      3.63975939      1.10200481     -2.01514765       0.21888891
H     -6.99600374     -2.42336266      4.73389530       0.23043377
3
1400000  xi=   0.16628075  Mean pot=  -105.19322029  Cent pot=  -109.40705559 kcal/mol
H      0.83542480     -3.62129011      2.53827861       0.16510070
H      0.91895632     -3.93076912      1.85287009       0.18267282
H     -1.75438111      7.55205923     -4.39114871       0.13095289
3
1500000  xi=   0.16815393  Mean pot=  -106.79026001  Cent pot=  -109.48125934 kcal/mol
H     -2.16094446     -4.32014034     -0.16201152       0.15395808
H     -1.84473858     -3.64896553     -0.25694971       0.20072029
H      4.00568304      7.96910586      0.41896124       0.21193109
3
1600000  xi=   0.17589498  Mean pot=  -106.05853574  Cent pot=  -107.50205757 kcal/mol
H     -0.23002025     -1.30512806     -4.20287973       0.18851501
H      0.44102170     -1.39015884     -4.17333017       0.23978807
H     -0.21100145      2.69528691      8.37620990       0.20940325
3
1700000  xi=   0.17395233  Mean pot=  -106.34192587  Cent pot=  -109.29124999 kcal/mol
H      3.92489273     -0.26188213     -2.59318042       0.18968097
H      3.41166924     -0.66077301     -2.28392512       0.17676003
H     -7.33656198      0.92265513      4.87710555       0.18053727
3
1800000  xi=   0.17699434  Mean pot=  -106.96653703  Cent pot=  -109.25341298 kcal/mol
H      0.99832623      3.44178918     -2.53546396       0.20972909
H      0.41707566      3.78025420     -2.28434692       0.18035101
H     -1.41540190     -7.22204338      4.81981087       0.20529352
3
1900000  xi=   0.17164819  Mean pot=  -107.05722452  Cent pot=  -109.49582626 kcal/mol
H     -1.06221191     -3.47334755      2.94103698       0.16174044
H     -1.33126817     -3.29942657      2.27456817       0.16653039
H      2.39348008      6.77277413     -5.21560515       0.24998255
3
2000000  xi=   0.17126555  Mean pot=  -107.66277053  Cent pot=  -108.31610984 kcal/mol
H     -0.87464596      2.85901978     -3.62198875       0.23719216
H     -0.54195305      2.86398121     -3.01622305       0.18834278
H      1.41659901     -5.72300099      6.63821180       0.25392184
