96
100000  xi=   0.93290082  Mean pot=  -104.97411658  Cent pot=  -106.26195292 kcal/mol
H      0.61122875     -0.76508467     -0.22679087     -1.35227387e+01    1.06989219e+01    4.04928513e+00       -2.75975593      3.54991471      1.00875031  
H      0.53015670     -0.74005519     -0.16012220      6.06823943e+00   -4.14928667e+00    4.92198571e+00      -46.90900867     37.57531904     -1.79577418  
H      0.59787383     -0.71052226     -0.10358026      8.36479619e-02    1.36354792e+01   -5.10847997e+00      -36.95977668     24.25263691     -4.35715498  
H      0.55944599     -0.85332015     -0.09127473     -1.42941038e+01    8.80769896e+00    3.20637864e+00       15.22811857    -10.59876837      0.08627502  
H      0.52781072     -0.78367399     -0.18598027     -6.29909463e+00   -3.74995605e+00    8.97055026e+00        7.22189366     -4.41682631     -0.11709374  
H      0.35446546     -0.88352880     -0.22289810     -7.73888811e+00   -8.37401163e+00    3.89611147e+00        0.02939211      1.23536170      0.68669857  
H      0.25848165     -0.85229106     -0.27488355     -1.75465880e+00    8.71620601e+00   -1.09458235e+01      -22.62669290     64.95842298     25.23206773  
H      0.19549328     -0.86157607     -0.13479396      1.30977625e+00    1.03153752e+01    3.51304125e+00      -20.99120483    156.02918581     -2.69893100  
H      0.27967485     -0.90718821     -0.24006992      6.63760718e+00    3.26759985e+00   -1.07323023e+00       -9.99810498     38.86015147      5.71260577  
H      0.31599656     -0.90632214     -0.24725571      2.02891481e+00    3.42722937e+00   -3.09872759e+00      -36.46585447    160.63917658     63.87149646  
H      0.43249616     -0.89330620     -0.22387704     -1.46056833e+01    2.41891786e+00    3.95047962e+00       -9.69321032     17.46804006      4.06607605  
H      0.48083455     -0.85307181     -0.23286274     -3.24782464e+00    1.21209651e+01   -3.43431053e+00      -15.77918809     33.49443027     10.69233771  
H      0.49274369     -0.76724067     -0.22053033      6.40409635e+00   -5.46162345e-01   -1.03754428e+01      -41.00873309     65.56575300     16.46049378  
H      0.39526548     -0.74004803     -0.23013733      2.73337603e+00   -1.00238055e+01    2.41052126e+01      -60.19931731    110.30249995     28.91342615  
H      0.43941575     -0.80986518     -0.31557436     -2.84998023e+00   -4.08011902e+00    1.88156695e+01      -34.48055143     76.22009391     14.37660058  
H      0.43283124     -0.77790211     -0.27775249     -5.04894122e-01   -3.59500289e-01    1.94258589e+00       -7.12714692     15.29854485      3.73115995  
H      0.43211654     -0.83478654     -0.24739838      1.96786533e+00   -3.15992585e+00   -2.59784331e-01      -29.34586040     54.52865559      9.04429837  
H      0.54839184     -0.86696403     -0.21306995     -4.53557815e+00   -1.65757047e+01    7.04528063e+00       36.17483482    -51.41439337      2.34704136  
H      0.44810228     -0.87040391     -0.20402920     -7.81244196e+00    1.00799082e+01   -6.85868142e+00       13.21506857    -25.29408376      0.36991029  
H      0.47247884     -0.88749567     -0.21354013      3.12303900e+00   -1.05440839e+01   -8.06642163e+00       15.91229662    -32.70365190      3.68615480  
H      0.54961803     -0.98120402     -0.24236673     -1.07649068e+01   -4.10752603e+00   -4.19371154e+00       31.15136134    -43.76712415      0.01681341  
H      0.53166661     -0.91827689     -0.25913984      6.77884232e+00   -2.38899693e+00   -5.56952603e+00        1.27728286     -0.93077435      1.80402879  
H      0.44964293     -0.99842342     -0.32834998     -2.28974543e+01    1.04224847e+01    3.80109125e+00      -37.51720776     65.58681958      1.20430510  
H      0.59416558     -0.97140165     -0.30651301      1.44589799e+01    1.07443807e+01   -8.51496777e+00      -13.31831363     12.07410455     -0.32835493  
H      0.55580276     -0.96336487     -0.30037869      3.84427720e-01   -6.73854968e+00    1.47547517e+01      -84.09568282     66.37722471     -5.42211106  
H      0.67726608     -0.88271047     -0.28234006     -1.16295267e+01    4.36111971e+00   -6.92241613e+00       10.58073289     -4.59873541      2.97700962  
H      0.63977305     -0.92248267     -0.23891933     -5.64823690e+00    3.83401274e-01    2.07258620e+01       28.02056690    -16.84038174      7.97586015  
H      0.59568111     -0.86071137     -0.17906757      3.03793587e+00   -5.46720319e+00    5.91908478e+00       24.06839116    -16.54577015      5.62154722  
H      0.60806925     -0.86865125     -0.31486901     -5.26687049e+00    6.47455093e+00    3.93727714e+00       28.05422440    -15.34407683     -1.27574602  
H      0.61746989     -0.85263864     -0.19156795     -1.20042879e+01   -6.83828357e+00    7.76223663e+00       13.20468078     -4.99729341     -0.83206628  
H      0.54962511     -0.87248021     -0.19143136      1.29490768e+01    6.39967546e+00   -6.10787848e+00       45.50249873    -34.12826117      0.00409852  
H      0.56150797     -0.73038043     -0.20380490     -8.59722343e+00   -4.34082416e-01   -4.98340050e+00       28.65789162    -20.95115597     -0.14685463  
H     -0.00605584     -0.35874746     -0.18555572     -8.04626110e+00    5.06308274e+00    8.67054077e-01        0.91067519      0.50165202      0.46289386  
H     -0.01522427     -0.32695875     -0.19295368      3.13291958e+00   -9.94512885e-01    9.55751373e+00       45.03786502    -32.51127817      3.51714433  
H      0.00015762     -0.35985661     -0.19800610      1.09828596e+01   -7.35544220e+00    2.95749220e+00       34.27257112    -17.80504015      6.74177163  
H     -0.03610429     -0.36312916     -0.05827860     -1.49406005e+01    1.90186359e+00    1.35761454e+00      -17.45987736     15.62451971      1.56968842  
H     -0.02989370     -0.27476219     -0.07971505     -3.97037036e+00   -8.63760980e+00    3.74968293e+00      -10.83923080     11.52675127      3.01295542  
H     -0.05620424     -0.28318210     -0.04827064      8.40339626e+00   -3.87243100e+00    1.23684610e+00       -2.70990833      5.03344974      1.73861689  
H      0.05292587     -0.25211374     -0.04176124      1.73527242e+00   -4.21286395e+00    7.86915646e+00       19.82300383    -58.86946768    -22.86553812  
H      0.11613485     -0.24654821     -0.15062646     -2.36736582e+00    2.75439286e+00   -7.16760585e+00       18.55167757   -149.68161801      5.02304016  
H      0.11671093     -0.22721767     -0.15514539     -8.35774833e+00    6.60982985e+00   -2.39623796e+00        7.23728702    -32.62935834     -3.34400163  
H      0.19293134     -0.35052583     -0.02543867      3.41008870e-01    2.76828004e+00   -3.30176056e+00       32.91992238   -152.58937371    -61.12923439  
H      0.07871044     -0.27202718     -0.09793326      4.02690765e+00    1.03588947e+01    5.22095135e+00        6.35142332    -10.74628448     -1.69880878  
H      0.19752302     -0.23510638     -0.03913139     -8.68211662e+00    8.59030182e+00   -3.01932186e+00       12.05654038    -27.15563644     -8.33505905  
H      0.14137213     -0.20905826     -0.08586835      3.90823767e+00    5.25566209e+00    6.33964173e+00       36.45162211    -57.47851180    -13.21205154  
H      0.09483992     -0.19363177     -0.08956382     -1.67570024e+01    3.72056975e+00    4.26589036e-01       55.67338614   -100.37173861    -25.23540451  
H      0.17006113     -0.20515143     -0.21294396     -6.03447843e-01   -4.24181906e+00   -6.41877481e+00       29.26363648    -66.92699442     -9.87146541  
H      0.13947082     -0.11004101     -0.18773839     -4.53613983e+00   -5.82171044e+00   -2.43207499e+00        2.38856786     -6.20258170      0.54110672  
H      0.10379078     -0.23605810     -0.15814597      1.09117422e+01   -8.07259395e+00   -3.01923145e+00       24.85586799    -44.28335800     -5.65923455  
H      0.04667268     -0.14417642     -0.22526334      8.59480391e+00    8.65969018e+00    2.79879447e-01      -38.90044303     55.94503743     -1.14631811  
H      0.07552335     -0.16134606     -0.17912867      5.89538289e+00   -4.22023244e+00    2.47187273e-01      -17.16530939     32.60063006      1.72699193  
H      0.11305945     -0.16526619     -0.26708399     -1.19981675e+01    1.65233996e+01   -5.17225045e-01      -19.53491060     38.81800433     -2.12306303  
H      0.06356656     -0.28972542     -0.23052382      3.35916968e+00    1.09265673e+01   -1.62076699e-02      -34.21471915     48.90701406      1.16026913  
H      0.09042005     -0.31569414     -0.34201316     -6.88961243e+00   -5.35792470e-01    2.97364933e+00       -4.76389871      7.12886018      0.30326956  
H      0.11353886     -0.41378011     -0.32747593      8.42323827e+00   -4.30158225e+00   -5.84893721e+00       34.07005625    -58.97436018      0.89211542  
H      0.01319761     -0.54179809     -0.38193747      1.97297798e+01   -9.05186684e+00    1.07386759e+00       10.53171953     -6.08944403      2.43610527  
H      0.04045781     -0.56918665     -0.33955508      4.60300973e+00   -2.66669249e-01   -3.59252922e+00       81.91972334    -60.88894464      7.06413439  
H      0.05091486     -0.45487323     -0.36716666      2.64756336e+00   -7.28991558e+00   -4.71102052e+00      -13.38245785     11.03174605     -0.70176394  
H     -0.00497525     -0.47417448     -0.38162032     -3.59840900e+00    2.71399737e+00   -4.19933863e+00      -31.08392993     23.30429259     -5.74469468  
H     -0.01569437     -0.36197810     -0.27267968     -8.19632602e+00   -1.09608058e+00   -6.91428381e+00      -27.27068880     24.17233651     -2.96795458  
H     -0.05816494     -0.43987365     -0.25531935     -6.29366944e+00    1.02512069e+01    2.88277330e+00      -30.45758237     21.30959406      3.49820888  
H     -0.05318740     -0.49599849     -0.11630817      2.80896872e+00   -3.63757274e+00    1.98048528e+00      -14.78706876      9.09674870      2.05516345  
H     -0.10923210     -0.34515432     -0.17617998      3.70730823e+00    4.11666843e+00   -1.67115400e+01      -47.51644645     39.13016095      1.60762720  
H     -0.06509438     -0.23348443     -0.17753579      3.43668429e+00    9.64072651e+00    7.35274215e+00      -31.23158283     25.84023617      1.94731888  
H     -0.53478892      1.37839329      0.51046258     -7.00545749e+00    1.33886987e+01    2.02927680e+01        1.84908074     -4.05156673     -1.47164417  
H     -0.43917464      1.41626462      0.49672446      8.05100186e-01   -2.45725591e+00   -2.36773681e+00        1.87114365     -5.06404087     -1.72137015  
H     -0.44040892      1.26869959      0.52251868      5.52461689e+00   -7.39622415e+00   -3.12554715e+00        2.68720556     -6.44759676     -2.38461665  
H     -0.53409503      1.27475602      0.55939771     -1.01631221e+01   -2.21645229e+01    9.92122473e+00        2.23175879     -5.02575134     -1.65596344  
H     -0.56929192      1.12049188      0.54620259     -3.48128210e+00    1.21024703e+01   -1.57073676e+00        3.61733714     -7.10992496     -2.89586167  
H     -0.60553577      1.19736362      0.55588209      2.57170848e-01   -1.14587562e+01    8.60310035e+00        2.68051622     -6.26881144     -2.42531546  
H     -0.67251917      1.24225807      0.53911543      1.90564221e+01   -8.64964803e+00   -5.50330200e+00        2.80368906     -6.08895530     -2.36652961  
H     -0.56077714      1.29834163      0.54269550     -3.47566357e+00   -1.09132966e+00   -8.61831384e+00        2.43952726     -6.34756780     -2.32410915  
H     -0.60092638      1.22374200      0.49019343     -6.40055643e+00   -1.50097147e+01    1.46376635e+00        2.76081797     -6.23079312     -2.36860414  
H     -0.51701848      1.12058662      0.45919566     -8.37609055e+00    2.97226871e+00    3.53811848e+00        3.54593209     -8.04980287     -2.74226207  
H     -0.60516349      1.15074104      0.45166266     -6.76286735e+00   -6.21731116e+00   -8.84831821e+00        3.34178700     -6.72175557     -2.36726727  
H     -0.65021594      1.13811196      0.49024887     -3.64120175e+00    9.10137721e+00    8.66694873e+00        3.72264771     -6.33879383     -2.35727867  
H     -0.58860882      1.11878285      0.49185146     -1.19814454e+00   -2.39172539e+00   -6.54305953e+00        4.55711098     -8.08724120     -3.24844224  
H     -0.50044105      1.16639737      0.44366541     -1.80568501e+00    3.15996122e+00   -4.18802749e-01        4.52593117     -9.93076134     -3.67802164  
H     -0.54066244      0.99942943      0.46476628      8.70427265e+00   -3.23398911e+00    2.58196302e+00        5.21691495     -9.29309949     -4.50513517  
H     -0.49804068      1.05630536      0.48264191      7.38817468e+00   -9.70836519e+00   -1.49873372e+01        4.73857906     -9.09596315     -4.27226667  
H     -0.44632119      1.09334762      0.33460575     -1.24590609e+00    1.13567728e+01   -3.28351292e+00        4.48999241    -10.24529760     -3.38506382  
H     -0.61407833      1.08298594      0.33602097     -6.03481155e+00   -1.37222346e+01    1.74404166e+00        2.72560821     -4.53064406     -1.20072325  
H     -0.59573141      1.06661942      0.29538379     -6.11552506e+00   -2.23627503e+00   -6.04416126e+00        3.95024081     -7.30654631     -2.09690223  
H     -0.69726120      1.13009385      0.21308729     -6.85400015e+00   -1.43865411e+00   -1.44341237e+01        3.62261397     -6.11435243     -1.56309177  
H     -0.68603167      1.05529444      0.18060473     -4.21174213e-01   -5.47056301e+00   -5.91741722e+00        3.06335781     -5.13988990     -1.17708254  
H     -0.63995032      1.08562625      0.29736818      4.64763786e+00    1.20053322e+01    4.68043411e+00        3.48661585     -6.19808583     -2.10729835  
H     -0.63343023      1.05094090      0.23471040     -1.71366920e+00    1.00251838e+01   -2.58763983e+00        3.44715151     -6.61245941     -2.09642053  
H     -0.51013465      1.04617591      0.30593331     -2.09388857e+01    5.06173254e+00    3.70502134e+00        2.78659411     -5.98466052     -2.10775033  
H     -0.45506101      1.16707135      0.26429859     -4.92929951e+00   -8.71328934e+00   -1.03071925e+01        2.17595948     -5.48828007     -1.64202333  
H     -0.37647089      1.11408342      0.32509744     -6.18447916e+00    1.03341222e+01    1.72645444e+01        2.80172496     -6.43301064     -2.27524568  
H     -0.45988823      1.04198905      0.32311033     -1.93583894e+00   -1.43004262e+01    1.67783000e+00        3.06336302     -6.46391085     -2.23116547  
H     -0.37832467      1.09124506      0.39748172     -3.51400668e+00    6.08060531e+00    9.36430658e+00        3.20229764     -7.62656636     -2.65359265  
H     -0.40019838      1.16067062      0.40243980     -1.56577695e+01    1.51530657e+01   -1.27829197e+00        2.40335798     -5.96551723     -2.22246286  
H     -0.43590055      1.35358811      0.45488261      6.08465646e+00   -5.68961673e+00   -3.46692937e+00        1.58238798     -4.09945529     -1.22309716  
H     -0.46031944      1.27608851      0.45071442     -7.26673524e+00    5.85682125e+00   -9.14052631e+00        2.01394772     -5.00189978     -1.61172572  
H     -0.65097083      1.31151241      0.48907394      7.66709507e+00    4.06379263e+00   -1.97114655e+00        2.57369120     -4.88908020     -1.80046424  
