3
100000  xi=   0.26837932  Mean pot=  -106.40533180  Cent pot=  -109.49119174 kcal/mol
H      1.83708409      3.17544885     -0.64596952       0.17041212
H      1.60392843      3.86662215     -0.49144295       0.24214388
H     -3.44101251     -7.04207100      1.13741247       0.19078798
3
200000  xi=   0.26157459  Mean pot=  -107.95685281  Cent pot=  -109.32883394 kcal/mol
H     -2.10059717     -3.07918830     -0.65798167       0.20326733
H     -1.82052137     -3.74445617     -0.64984482       0.20905443
H      3.92111854      6.82364447      1.30782648       0.13982858
3
300000  xi=   0.27350594  Mean pot=  -106.29784194  Cent pot=  -107.18742815 kcal/mol
H      3.44229096      0.84975062      1.97251279       0.23947041
H      3.10759674      0.30045956      2.16881096       0.15871790
H     -6.54988770     -1.15021017     -4.14132375       0.14979993
3
400000  xi=   0.25985310  Mean pot=  -106.01196642  Cent pot=  -109.46218540 kcal/mol
H      1.22671992      4.03378438      0.36589047       0.16034850
H      1.36919620      3.44299183      0.80707875       0.17415036
H     -2.59591612     -7.47677621     -1.17296922       0.15746930
3
500000  xi=   0.26249705  Mean pot=  -106.47785079  Cent pot=  -108.81692165 kcal/mol
H     -1.48745449      2.80779707     -1.79017698       0.14606450
H     -2.03338083      3.35832085     -1.90673285       0.19832115
H      3.52083532     -6.16611792      3.69690983       0.21939851
3
600000  xi=   0.26391480  Mean pot=  -106.61590222  Cent pot=  -109.43920740 kcal/mol
H     -0.94331877      3.53717290     -2.06535778       0.21754459
H     -0.33851738      3.09465433     -2.14542946       0.14518134
H      1.28183615     -6.63182723      4.21078724       0.15786711
3
700000  xi=   0.27253246  Mean pot=  -104.61554000  Cent pot=  -106.56979267 kcal/mol
H     -2.85700839      2.31411727      2.10385978       0.21775466
H     -2.38383997      1.85187958      2.04012002       0.16197166
H      5.24084836     -4.16599685     -4.14397980       0.26679515
3
800000  xi=   0.27153805  Mean pot=  -105.21579581  Cent pot=  -109.49629297 kcal/mol
H     -4.19272283      0.02977623     -0.47569521       0.15247901
H     -3.57904692      0.01865458     -0.89533209       0.12025235
H      7.77176975     -0.04843081      1.37102730       0.17904333
3
900000  xi=   0.27643249  Mean pot=  -107.12261280  Cent pot=  -108.34356873 kcal/mol
H      3.91777853     -1.05670777      0.36176803       0.23638840
H      3.58436659     -0.73988076      0.87838237       0.19019671
H     -7.50214512      1.79658853     -1.24015040       0.22558474
3
1000000  xi=   0.27439569  Mean pot=  -105.61653834  Cent pot=  -109.31782875 kcal/mol
H      0.66938678      2.19753334      2.96176499       0.16242977
H      1.02936325      2.85240827      2.80799680       0.15352727
H     -1.69875003     -5.04994161     -5.76976180       0.23365994
3
1100000  xi=   0.27440601  Mean pot=  -107.22301258  Cent pot=  -109.33897805 kcal/mol
H      3.59365556     -1.10338840     -1.41047894       0.17160539
H      3.28346593     -1.70903264     -1.06834777       0.17864282
H     -6.87712149      2.81242104      2.47882672       0.20224248
3
1200000  xi=   0.26955380  Mean pot=  -105.30360460  Cent pot=  -108.17414477 kcal/mol
H      1.40289333     -1.64917834      3.42132042       0.10644356
H      0.82527086     -1.12900875      3.61810075       0.16724455
H     -2.22816418      2.77818709     -7.03942117       0.23682257
3
1300000  xi=   0.27204613  Mean pot=  -107.25867917  Cent pot=  -109.34670600 kcal/mol
H      1.19693117      1.59546553      3.07913883       0.21436819
H      0.87898679      1.79194490      3.74217523       0.17462229
H     -2.07591796     -3.38741043     -6.82131406       0.18881306
3
1400000  xi=   0.26758872  Mean pot=  -104.43033506  Cent pot=  -109.43430432 kcal/mol
H      1.99320413     -0.66866672     -3.28302521       0.17174352
H      1.83884909     -0.02137411     -3.58174218       0.15251648
H     -3.83205322      0.69004083      6.86476739       0.15747017
3
1500000  xi=   0.26566264  Mean pot=  -107.48266844  Cent pot=  -109.21478499 kcal/mol
H      2.47723349      2.90477830     -1.88617229       0.19781111
H      2.10052111      2.76037484     -1.29440201       0.18304615
H     -4.57775459     -5.66515314      3.18057431       0.18623061
3
1600000  xi=   0.26427021  Mean pot=  -105.67431588  Cent pot=  -109.45033204 kcal/mol
H      3.01318234      0.11293830      2.43516441       0.15138076
H      3.24350834      0.82515846      2.35850665       0.14716928
H     -6.25669069     -0.93809677     -4.79367106       0.26209143
3
1700000  xi=   0.26774192  Mean pot=  -106.68068281  Cent pot=  -109.48626269 kcal/mol
H      4.07246861     -0.65144521      1.02432084       0.16487772
H      3.64899611     -0.36665309      0.47891873       0.16783979
H     -7.72146472      1.01809829     -1.50323957       0.17320917
3
1800000  xi=   0.26050790  Mean pot=  -106.84981884  Cent pot=  -109.08750739 kcal/mol
H     -3.62133018      1.68508342      1.19741874       0.20138528
H     -3.33798668      1.11702998      1.51808624       0.17838009
H      6.95931686     -2.80211340     -2.71550497       0.18685931
3
1900000  xi=   0.27307624  Mean pot=  -107.32652934  Cent pot=  -109.41385161 kcal/mol
H      0.29100753      3.02939239     -3.02202500       0.16170582
H      0.28933888      2.69202903     -2.37735377       0.16716064
H     -0.58034641     -5.72142142      5.39937877       0.21817846
3
2000000  xi=   0.27185261  Mean pot=  -107.00204349  Cent pot=  -108.91736025 kcal/mol
H      0.11988492     -4.19458525     -0.78264287       0.21572434
H      0.12267873     -3.50506853     -0.93265382       0.20694572
H     -0.24256366      7.69965378      1.71529669       0.18094158
