96
100000  xi=   0.15167587  Mean pot=  -105.09049004  Cent pot=  -109.47176993 kcal/mol
H     -1.75967251      4.06302133      0.50579657     -5.19053704e+00    1.04262268e+01    3.32038413e+00      -86.15897547    -57.58788663     21.91259124  
H     -1.76006212      4.02778482      0.59922784     -1.18187665e+01   -6.03904301e+00   -7.02821739e-02      -57.78707840    -39.84907990     -0.26199247  
H     -1.71918279      4.20022610      0.67897235      2.01224633e+00    7.08597302e-01   -3.78542723e+00       39.21420013     56.13730712      8.87975888  
H     -1.69089926      4.17555730      0.70282430     -3.19369982e-01    2.91893626e+00   -1.01930476e+01       62.47792085     61.63779374     11.97534098  
H     -1.63232619      4.15293376      0.77467012      1.23346497e-01   -3.46663465e+00    4.75142483e+00       68.07679221     62.49028137     25.99534750  
H     -1.77377311      4.27657702      0.66719875      6.96275633e+00   -2.46765371e+00    2.18348409e+00       23.87551780     28.03998691      4.99827268  
H     -1.70465635      4.33900773      0.53484947     -4.65518941e+00    2.84706181e+00   -1.22885096e+00       38.24735783     31.36314877      0.29114733  
H     -1.68377559      4.24216379      0.46622055     -1.37076378e+00   -8.64018681e+00   -4.18392574e+00       54.21993345     30.49885564    -13.88227513  
H     -1.65139472      4.17632414      0.44601896     -1.28258166e+01    4.47265564e-01   -9.65595782e+00       78.11337506     38.75201792    -26.40812562  
H     -1.80044336      4.26149888      0.47904392     -3.75142235e+00   -5.85700980e+00   -3.65554860e+00       80.10715250     46.72323170    -28.26086170  
H     -1.77163987      4.23011568      0.45173912      4.60217615e+00   -5.79222030e+00    6.92971176e+00       87.22266422     49.30795773    -26.83421165  
H     -1.88075317      4.21391391      0.47744576     -3.21731612e-01    5.77090775e+00    4.11172983e+00       61.46516399     28.49134076    -17.62336974  
H     -2.01455573      4.13310294      0.53012895      3.49804960e+00   -6.80170374e-01   -1.49100471e+01        1.26561817      0.55562427     -0.47978410  
H     -2.08457736      4.14980479      0.51823928     -2.98224800e+00   -3.47536234e+00   -1.65143740e+01      -25.26056959    -14.98135899      5.70810641  
H     -2.10809774      4.14168838      0.53160019     -1.25735358e+01    1.48666780e+01    7.06562149e+00      -18.66365762    -11.00664715      6.36754749  
H     -1.99655336      4.08582935      0.48956605      5.66338849e-01    3.39477093e+00    7.05814674e+00       40.74656385     18.52209961    -23.30936482  
H     -1.94168532      4.19676800      0.50160669     -6.42102033e+00   -7.86011001e+00    2.59217823e-01       46.07846781     24.28853487    -19.84294526  
H     -1.98691648      4.10341020      0.53489917     -1.15218565e+00   -4.52267536e+00    3.68648946e+00       21.86180892      7.35512767     -9.52275566  
H     -2.00186360      4.06291798      0.50756795     -5.93338134e+00   -8.02775562e+00    7.17605168e+00       16.10324638      8.79829242    -12.78909907  
H     -1.94485972      3.99531858      0.53555384     -1.17662549e+01    2.58233502e+00   -5.09923694e-01       58.00134536     18.63637406    -31.07351519  
H     -2.04139049      3.93874824      0.50287434      5.83426329e-01   -7.30418908e+00   -7.17254535e+00        5.59526815      1.41630543     -4.94922200  
H     -2.07082199      3.89816841      0.53382122      8.88219323e-01    3.10890226e+00    1.47582174e+00     -112.52026695    -34.40622072    110.24054901  
H     -1.95504873      3.94312727      0.50459944     -2.85161097e-01    1.06576155e+01   -5.63275644e+00      -41.56327284    -13.22074780     41.87733248  
H     -1.91250404      3.91674688      0.55581235      8.45640895e+00    6.04544463e+00    5.26264194e+00      -82.82760394     -2.83407946     78.60534026  
H     -1.79428672      3.86527641      0.58141816     -2.07196250e+00    1.01011255e+00   -9.59140500e+00      -50.97611410      5.66289364     35.95862920  
H     -1.68336078      3.88405941      0.47497095      1.76310139e+01   -1.23356017e+01   -4.78417707e+00       18.99058023     -1.27868510     -9.21244387  
H     -1.74988324      4.02871191      0.50641328      2.41131185e-03   -3.45378016e+00    4.88617236e+00      -36.42753450     -0.18992095     15.94425870  
H     -1.73118222      4.05000369      0.61698054     -8.86598993e+00   -1.26082344e+01    6.91850216e+00      -56.24092812    -15.96640338      8.60668991  
H     -1.74835512      4.01708391      0.50282814     -3.80094347e+00    1.99189092e+01    1.47476272e+01       -4.35195126     -1.36146136      1.67564153  
H     -1.66394829      4.03592932      0.50303389      1.06178338e+01    1.22730845e+01   -6.16478043e+00       65.61438591     35.37067026    -28.79814901  
H     -1.72683805      3.99543369      0.58645179      8.41723066e+00    2.89138056e+00    3.93565741e+00       53.57781770     21.43786607    -13.82414704  
H     -1.69618155      3.99111397      0.47632544      7.96309806e+00    9.24807895e-01   -2.54370864e+00       70.20895648     28.78890900    -20.49379969  
H     -2.28715323      3.71045793      0.63994939      1.11650773e+01   -1.03043541e+01   -1.35463615e+01       86.15897389     57.58788954    -21.91259084  
H     -2.31498988      3.64511516      0.59671193     -8.63871941e+00    7.64294130e-01    5.89346513e+00       57.78707681     39.84908279      0.26199289  
H     -2.20902675      3.49898727      0.56805090     -1.64673349e+01   -3.99374278e+00   -3.60143530e+00      -39.21420170    -56.13730423     -8.87975843  
H     -2.34664777      3.52862651      0.57713491      2.23909283e+00    6.25787548e-01   -3.30425184e+00      -62.47792241    -61.63779081    -11.97534050  
H     -2.31936935      3.52227068      0.51232043     -2.22141009e+00    1.04771013e+01    1.28323300e+01      -68.07679379    -62.49027843    -25.99534702  
H     -2.28428622      3.67701809      0.56032427     -8.46070822e+00    1.32294088e+01    1.18311942e+01      -23.87551928    -28.03998418     -4.99827223  
H     -2.33663826      3.82077738      0.53003869      1.13016025e+01   -9.28049795e+00    4.70402488e+00      -38.24735929    -31.36314609     -0.29114690  
H     -2.40582172      3.83601095      0.65109062      5.42999995e+00   -2.10399348e+00   -3.64695716e+00      -54.21993480    -30.49885315     13.88227552  
H     -2.45871702      3.77581185      0.71895389     -7.01394408e-01   -2.56676704e+00    2.10053986e-02      -78.11337645    -38.75201533     26.40812605  
H     -2.60604625      3.79162362      0.76325115      3.32585993e+00    4.15563424e+00   -3.27021180e+00      -80.10715382    -46.72322927     28.26086212  
H     -2.64237680      3.73787827      0.71962292     -3.32614277e+00    4.73767728e+00   -1.52654415e+00      -87.22266557    -49.30795522     26.83421209  
H     -2.64039777      3.86179101      0.69525202     -2.91714051e+00    1.37910764e+00    1.20711179e+01      -61.46516535    -28.49133829     17.62337018  
H     -2.65761232      3.85079283      0.77390572      1.26525246e+00   -4.48556272e+00   -7.88486584e+00       -1.26561956     -0.55562175      0.47978455  
H     -2.68334672      3.79469088      0.65354261     -8.62659051e+00   -2.67445946e+00   -2.94311762e+00       25.26056815     14.98136158     -5.70810594  
H     -2.70025173      3.79247328      0.73362750     -6.93707204e+00    1.36032897e+01   -4.95278397e+00       18.66365621     11.00664964     -6.36754705  
H     -2.65808581      3.78511764      0.86800044      4.55069199e+00   -1.82272934e+00    1.39300908e+01      -40.74656528    -18.52209708     23.30936525  
H     -2.62809841      3.83495113      0.79719937     -6.73412179e-01   -9.40168786e+00   -2.50568260e+00      -46.07846928    -24.28853221     19.84294569  
H     -2.66599784      3.87494197      0.83069929     -7.40550605e+00    6.33122805e+00    7.25979504e-01      -21.86181056     -7.35512479      9.52275610  
H     -2.55716904      3.75951713      0.94858809     -1.82669976e-01   -7.11506206e+00   -5.78788118e+00      -16.10324804     -8.79828947     12.78909955  
H     -2.67488107      3.76075592      0.92665390     -3.28378079e+00   -7.97777053e+00    1.15383510e+00      -58.00134706    -18.63637108     31.07351569  
H     -2.59412697      3.79883669      0.99179018     -2.05483772e+00    1.75582493e+00    1.54500361e+00       -5.59526983     -1.41630250      4.94922251  
H     -2.50053840      3.76677058      0.95483136     -1.32755943e+00    2.82002951e+00    8.34897890e+00      112.52026519     34.40622385   -110.24054847  
H     -2.42375591      3.79403747      0.97684826      8.92573343e+00   -4.44691960e+00   -9.84873431e+00       41.56327114     13.22075085    -41.87733195  
H     -2.37883836      3.90079049      0.99837458     -2.63797182e+00    1.45422520e+01   -4.36563441e+00       82.82760215      2.83408274    -78.60533968  
H     -2.34774681      3.92675981      0.97182976      2.28430635e+00    7.28288120e+00    4.63943917e+00       50.97611236     -5.66289042    -35.95862864  
H     -2.37445744      3.93059281      0.81022606     -3.89026678e+00    7.76557597e+00    5.69026465e+00      -18.99058187      1.27868823      9.21244437  
H     -2.39098993      4.02536937      0.78702439      4.35652555e+00   -7.25293791e+00   -1.72223465e+01       36.42753294      0.18992390    -15.94425823  
H     -2.38120119      3.86546786      0.71645457      9.65079950e+00   -4.92706711e+00    4.60552735e-01       56.24092648     15.96640644     -8.60668940  
H     -2.40756429      3.81085710      0.75664494      2.81572141e+00    4.54968268e+00    2.77814929e+00        4.35194961      1.36146438     -1.67564104  
H     -2.39939321      3.63947391      0.82582061     -5.33129306e+00    7.05208203e+00    1.74176880e+00      -65.61438753    -35.37066725     28.79814949  
H     -2.48378664      3.69255907      0.78175965      6.68161514e+00   -5.03049676e+00   -6.43443483e+00      -53.57781933    -21.43786308     13.82414751  
H     -2.49226212      3.66468425      0.70869915      5.07804150e-01    3.22257286e-02    9.23596340e-01      -70.20895810    -28.78890606     20.49380012  
H      4.38691921     -7.92725178     -1.05481887      1.79649586e+01    6.29682370e+00   -4.93182630e-01        0.00000158     -0.00000291     -0.00000040  
H      4.43260275     -7.94302627     -1.11141324     -2.68496905e+00   -1.05211774e+01   -3.50658659e+00        0.00000159     -0.00000288     -0.00000042  
H      4.42302282     -7.97037850     -1.19732880      5.48826449e+00    1.99897956e+01    3.82116363e+00        0.00000157     -0.00000289     -0.00000044  
H      4.23660490     -7.98100801     -1.32002710      3.74591291e+00    9.46039076e+00    2.05040693e+00        0.00000156     -0.00000293     -0.00000049  
H      4.31169467     -7.96968522     -1.28602376      4.82496507e+00   -9.24348837e+00    9.28199373e+00        0.00000158     -0.00000294     -0.00000048  
H      4.38647171     -7.92817561     -1.33847168      1.21157194e+00   -9.73620541e+00    5.53085627e+00        0.00000148     -0.00000273     -0.00000045  
H      4.44427153     -7.83487970     -1.39123686     -2.28602802e+00    6.29914533e+00    7.54650125e+00        0.00000146     -0.00000268     -0.00000043  
H      4.44942926     -8.02982921     -1.32889801      2.76003958e+00   -1.66698977e+00   -1.79953182e-01        0.00000134     -0.00000249     -0.00000039  
H      4.39452298     -8.01813279     -1.38599474     -1.01410634e+01   -1.48164807e+00    2.23657874e+00        0.00000139     -0.00000259     -0.00000042  
H      4.33593211     -8.02710102     -1.47519155     -1.42553481e+01   -8.29424360e+00    2.64748617e+00        0.00000132     -0.00000243     -0.00000042  
H      4.25482981     -8.04476865     -1.53583057     -4.72653725e+00   -4.39365172e+00   -1.79135890e+00        0.00000135     -0.00000251     -0.00000044  
H      4.32973488     -7.94791172     -1.53239748     -9.29995407e+00   -6.42405921e-01    8.87474745e+00        0.00000136     -0.00000247     -0.00000044  
H      4.27978042     -7.93317203     -1.50036882      6.99830316e+00   -6.20138319e+00    9.68944348e+00        0.00000139     -0.00000251     -0.00000045  
H      4.23078250     -7.88631680     -1.53510060      1.93446315e+00   -9.04927786e-01    8.04481694e+00        0.00000144     -0.00000259     -0.00000046  
H      4.31462500     -7.92014649     -1.48003072     -6.83748172e+00   -1.01947795e+01    1.02677990e+01        0.00000140     -0.00000249     -0.00000044  
H      4.36453218     -7.94117155     -1.34178886     -4.51995950e+00   -1.63542092e+00   -7.66956435e+00        0.00000143     -0.00000254     -0.00000043  
H      4.29495801     -7.83792716     -1.25614512      7.40546978e+00    2.65581603e+00   -1.10322216e+00        0.00000148     -0.00000267     -0.00000043  
H      4.33751441     -7.65278102     -1.12739297      3.32207805e+00    7.52096195e-01    1.35305157e+00        0.00000164     -0.00000287     -0.00000044  
H      4.31013848     -7.70297614     -1.17798466      5.24361773e-01    6.68420256e+00   -3.79777136e+00        0.00000167     -0.00000294     -0.00000048  
H      4.29968454     -7.68846659     -1.22687544      7.28250458e+00    1.51469489e+01    5.41500357e+00        0.00000170     -0.00000298     -0.00000050  
H      4.32614902     -7.69677453     -1.28011524      1.47235644e+01   -5.21178892e+00   -1.40287531e-01        0.00000168     -0.00000294     -0.00000051  
H      4.24018393     -7.67471371     -1.25077066      7.06376461e+00    5.59659809e+00   -5.55810924e+00        0.00000177     -0.00000312     -0.00000054  
H      4.26606129     -7.73505919     -1.27952355      2.33752926e+00   -7.12817279e+00    4.55070444e+00        0.00000169     -0.00000305     -0.00000053  
H      4.18917840     -7.60716363     -1.29365982     -4.54850697e+00    1.00262587e+01    2.92762290e+00        0.00000180     -0.00000327     -0.00000058  
H      4.20640983     -7.70552458     -1.28685585      7.98610509e+00    5.30808149e+00   -7.44315582e+00        0.00000173     -0.00000322     -0.00000057  
H      4.17482532     -7.84449323     -1.27131297     -5.89794229e+00    6.56664150e+00    2.83000896e+00        0.00000164     -0.00000312     -0.00000050  
H      4.22319094     -7.78935506     -1.27123951     -9.68990263e+00   -9.55766641e+00   -8.42398741e-01        0.00000156     -0.00000295     -0.00000048  
H      4.22434574     -7.76121724     -1.30175347     -7.35057569e+00   -3.95863965e+00   -8.07280730e+00        0.00000164     -0.00000306     -0.00000051  
H      4.31154066     -7.78352416     -1.25662077      9.93476850e+00    8.18361570e+00   -5.29018619e-01        0.00000164     -0.00000302     -0.00000049  
H      4.29399029     -7.90107490     -1.24842636      2.46603038e+01    1.50467044e+00   -3.23826705e+00        0.00000162     -0.00000300     -0.00000049  
H      4.28644836     -7.87942461     -1.14123250      4.41531104e+00   -2.55708129e+00   -1.72399325e+01        0.00000163     -0.00000299     -0.00000047  
H      4.37268889     -7.90474564     -1.13909039      9.43374311e+00    9.43593795e+00    3.10510223e+00        0.00000162     -0.00000294     -0.00000043  
