96
100000  xi=   0.55333740  Mean pot=  -105.51543263  Cent pot=  -109.31682453 kcal/mol
H      0.45234527      1.59634465     -1.66255789     -3.78442511e+00   -7.53617483e+00   -4.09279756e+00       26.36237539    -23.53841823     14.22849693  
H      0.42895703      1.56526341     -1.55891982     -1.22893953e+01    7.60363211e+00   -9.92987714e-01       36.66886291    -31.23893624     31.30193358  
H      0.44953840      1.46839691     -1.54711386     -1.71754305e+01    9.74564966e-01    1.00577376e+01       38.86558835    -61.34847481     38.88882287  
H      0.43721794      1.55576665     -1.53104450      1.19987360e+00    3.52426651e+00   -4.29277621e-01       35.42006878    -34.89296888     29.51648524  
H      0.44163767      1.57072468     -1.47834620      1.66195459e+00    1.90473253e+01    8.08973675e+00       25.37615834    -25.99089946     30.64328796  
H      0.32964723      1.72108610     -1.55521009     -2.21079267e-01    8.86731791e+00    1.17110835e+01      -28.45313070     37.95240997    -38.64414233  
H      0.35560052      1.73501636     -1.56267570      7.02851356e+00   -1.05766200e+01   -4.92683409e+00       32.08771656    -54.79154252     52.70163275  
H      0.29273659      1.74309680     -1.58363950      5.63652062e+00   -8.47218397e+00   -5.15323276e+00        2.45544707     -4.49960053      4.32530305  
H      0.25014296      1.70858026     -1.55928850     -3.50730723e+00    4.45333565e-01   -1.90093813e+01      -14.92760676     31.73712022    -34.47851681  
H      0.12274462      1.75512162     -1.56385850      1.12566618e+01   -2.12042496e+00   -9.17531442e+00      -37.46825830     67.67072973    -59.35187284  
H      0.16085340      1.71830037     -1.62587611      3.58685389e+00   -6.45668653e+00    7.55147326e+00      -50.32133730     66.43955301    -51.81183965  
H      0.14582686      1.72496293     -1.57798531     -2.44790671e-02   -2.69078733e+00    7.67251555e+00       22.55391914    -29.37709988     24.04946960  
H      0.09800398      1.66385701     -1.59167462      9.63406622e+00   -2.14777868e+00   -1.14189572e+01       19.35363033    -23.47942277     11.62264596  
H     -0.04576770      1.62185879     -1.62863572     -5.07505815e+00   -4.11155156e+00   -3.17215801e+00        3.07448822     -6.81975321      3.77968408  
H     -0.09364439      1.57331970     -1.60517016     -1.79083639e+00    9.25462198e+00    6.38162102e+00        9.42635381    -29.87036014     12.51154737  
H      0.02786066      1.59694482     -1.57775593     -2.78069216e+00    4.20666475e+00    2.90202642e+00      -11.71538327     22.24264841     -9.64892139  
H      0.08330498      1.69357153     -1.53868224     -7.59157020e+00   -1.20007352e+01   -4.97625602e+00        5.86564120     -9.70660423      6.84769762  
H      0.03054860      1.69333666     -1.50738847     -8.12440135e+00    9.07867779e+00    3.89186372e+00      -13.68613637     21.95494797    -16.93485325  
H      0.11643789      1.68482658     -1.56402607     -4.67325802e+00   -1.66404026e+01    3.97812310e+00     -189.89738953    176.60977878    -89.30486197  
H      0.08640307      1.63812017     -1.48748001     -1.01999560e+01    9.48281666e-01   -6.22879593e+00      -67.54540284     67.37764687    -57.05083472  
H      0.05288418      1.65269502     -1.42376593      5.42121156e+00   -2.81073687e+00   -9.49486767e+00      -59.11573046     59.57125876    -73.91346614  
H      0.10133437      1.58517808     -1.42364731      2.96767572e+00    2.50399918e+00    6.67263110e+00      -20.70082351     22.49303782    -23.96426074  
H      0.25355513      1.63699535     -1.46639802      3.68526438e+00   -1.56979901e+00   -8.98123836e+00      -21.45710571     16.54914151    -15.64959844  
H      0.29642055      1.66123572     -1.43131782      5.55089683e+00    1.35030971e+01   -6.22659110e+00      -11.10273805      9.32726468     -8.06858298  
H      0.35142199      1.61468143     -1.45321627      5.69576081e+00    9.45163490e+00   -2.66908796e+00      -12.40768951     13.23310108     -8.61736209  
H      0.36922467      1.54566782     -1.52797648      4.38565243e+00    1.18908026e+01   -4.37555239e+00       31.49930767    -50.50381740     33.99537093  
H      0.41425526      1.68976870     -1.56483374     -6.80858654e+00   -4.79705147e+00    2.83946985e+00       49.49138759    -50.96366969     30.03055544  
H      0.40846221      1.63059859     -1.45491141      6.79823160e+00   -7.15485802e+00    9.96674586e+00       50.77381128    -54.29492806     50.40964388  
H      0.45608004      1.61482368     -1.60871947     -5.89001397e+00    5.74726023e+00    5.73448165e+00       58.48439643    -44.63853336     25.52604982  
H      0.50454827      1.51416845     -1.56710175      4.48269996e+00    3.02322523e+00   -7.47686080e+00       63.59499579    -52.83828267     28.88611667  
H      0.44153271      1.56412729     -1.52440103      8.38312028e+00   -7.46848261e+00   -1.72022153e+00       63.68577357    -43.26819190     32.27156136  
H      0.40846864      1.47794770     -1.60754635      4.41469181e+00    6.12702982e-01    1.00809494e+00       58.06137262    -58.66423970     35.34061778  
H     -0.09864355      2.08831659     -1.95994690      1.00388436e+01    7.79102820e+00   -6.77144362e+00      -26.36235254     23.53851533    -14.22859761  
H     -0.10343244      2.01882237     -2.01339323     -7.89253086e+00   -1.27459103e+01    6.17792551e+00      -36.66883016     31.23907213    -31.30206364  
H      0.02281429      2.14197838     -1.97409939      2.99718793e+00   -4.12535584e+00   -1.80837307e+01      -38.86554400     61.34866122    -38.88901452  
H     -0.07422964      2.05961048     -1.95725399      9.98794012e-01    1.51904375e-01   -1.37055987e+01      -35.42002293     34.89313143    -29.51663549  
H      0.00725886      2.01563729     -2.00289580     -3.48594546e+00   -1.19027572e+01    8.85495073e+00      -25.37610829     25.99109104    -30.64345442  
H      0.01281570      2.14368531     -1.98551271     -9.96873761e-01    2.02690654e+00    1.66538762e+00       28.45317327    -37.95221641     38.64397338  
H      0.00368440      2.33594113     -2.14067896     -1.07089028e-01    4.27558271e+00    7.76391730e+00      -32.08767258     54.79178282    -52.70184645  
H      0.01821924      2.24623208     -2.06727927     -1.29987069e+00   -2.13784613e+00   -3.31684732e+00       -2.45541512      4.49979652     -4.32547315  
H      0.04028496      2.15473930     -2.04398856     -9.74149348e+00   -2.43362128e+00    8.73701773e+00       14.92764168    -31.73688909     34.47832417  
H     -0.12864662      2.20914840     -1.96207128     -1.14079143e+01    5.53419237e-01    1.61031754e+00       37.46829432    -67.67051056     59.35168705  
H     -0.17435017      2.16086656     -1.97100402     -2.03074906e+00    5.53434933e+00   -2.78642241e+00       50.32137781    -66.43937214     51.81168190  
H     -0.26639409      2.26190553     -2.01755223     -2.93968932e+00    9.97376218e+00    7.87211493e+00      -22.55387640     29.37731630    -24.04965802  
H     -0.36962724      2.23119173     -1.87251857     -4.59284626e+00   -2.88390470e+00   -1.20152511e+01      -19.35359234     23.47960198    -11.62281791  
H     -0.32161087      2.23381943     -1.96783026     -6.25586323e+00   -1.90689155e+00   -1.69225160e+01       -3.07444779      6.82001380     -3.77994280  
H     -0.31412105      2.27199096     -1.89782739     -1.74451422e+01    1.93499508e+01   -4.90830331e+00       -9.42632966     29.87061433    -12.51181548  
H     -0.28197966      2.18518293     -1.83292575      8.17784387e+00   -2.50281370e+00    1.74485899e+01       11.71541427    -22.24245705      9.64871978  
H     -0.25250027      2.24931477     -1.93075064      7.71480039e-01   -5.12770874e+00    2.09131849e+00       -5.86560260      9.70681011     -6.84789963  
H     -0.28292298      2.19617964     -1.89525016     -1.54847223e-01   -7.13659572e+00   -1.18306541e-01       13.68617557    -21.95472625     16.93462469  
H     -0.27491695      2.04879639     -1.74807137     -1.16543643e+00    1.62923818e+00   -3.22721296e+00      189.89741619   -176.60964764     89.30472539  
H     -0.30556403      2.02910936     -1.81854273     -4.57508272e+00   -6.20910308e+00    6.23300371e+00       67.54544858    -67.37744968     57.05064117  
H     -0.28787876      1.99607804     -1.84982259     -6.61257596e+00   -2.60603307e+00    3.23010558e+00       59.11578134    -59.57100365     73.91324145  
H     -0.27210276      1.99092834     -1.85593872     -3.13300184e+00    3.55853578e+00    2.51329596e+00       20.70088476    -22.49277487     23.96401491  
H     -0.23182510      2.01134031     -1.82039522      5.23426748e+00    7.91369725e+00   -7.13875917e+00       21.45714984    -16.54896467     15.64943276  
H     -0.18720061      2.06749154     -1.78274872      5.44251389e-01    7.21656399e+00    6.48598195e+00       11.10279454     -9.32706078      8.06838753  
H     -0.09287937      2.08851502     -1.76176906     -5.20788851e+00   -1.02413639e+00   -2.92243763e+00       12.40774635    -13.23290769      8.61716939  
H     -0.02651528      2.18017969     -1.95508441      9.63491565e+00   -1.63291564e+01    4.64435985e+00      -31.49924900     50.50402696    -33.99558268  
H     -0.15453281      2.27548189     -1.90996915      1.14414204e+01   -5.77578422e+00   -1.58148785e+01      -49.49134840     50.96381492    -30.03069935  
H     -0.12031374      2.19605122     -1.97990088     -5.73398161e+00   -1.02474872e+01   -3.22589580e+00      -50.77375248     54.29514188    -50.40984230  
H     -0.21142939      2.12430690     -1.90006290      5.18088993e+00    1.88536107e+01    1.11532013e+01      -58.48436880     44.63866316    -25.52617896  
H     -0.16731976      2.07239703     -1.87228039      1.08002847e+00    1.64364440e+01    2.41450453e+00      -63.59496461     52.83841744    -28.88625024  
H     -0.25162538      2.03506236     -1.87564827      6.99521647e+00    5.46102662e+00   -1.41606158e+00      -63.68574784     43.26831414    -32.27168075  
H     -0.19631707      2.08901680     -1.97566904      4.33010745e+00    4.78344646e-01   -3.26740201e+00      -58.06133981     58.66437669    -35.34076105  
H     -0.01364571     -3.83843079      3.71344697      1.76883120e+01    6.16358617e+00    1.43777824e-01       -0.00002284     -0.00009709      0.00010067  
H      0.03202878     -3.85419707      3.65680390     -2.96075480e+00   -1.06549436e+01   -2.86526182e+00       -0.00003274     -0.00013589      0.00013006  
H      0.02249369     -3.88156835      3.57095195      5.20856284e+00    1.98578521e+01    4.45647631e+00       -0.00004435     -0.00018640      0.00019166  
H     -0.16398807     -3.89216989      3.44819272      3.47194312e+00    9.32622959e+00    2.69125314e+00       -0.00004585     -0.00016255      0.00015025  
H     -0.08883464     -3.88086711      3.48222756      4.54547501e+00   -9.37548764e+00    9.91944229e+00       -0.00005005     -0.00019158      0.00016645  
H     -0.01409730     -3.83934286      3.42978083      9.35606831e-01   -9.86945658e+00    6.16848604e+00       -0.00004257     -0.00019357      0.00016894  
H      0.04370695     -3.74604279      3.37697607     -2.56232995e+00    6.16594439e+00    8.18717089e+00       -0.00004398     -0.00024030      0.00021370  
H      0.04889801     -3.94100787      3.43937493      2.48073814e+00   -1.79902425e+00    4.55532779e-01       -0.00003194     -0.00019600      0.00017010  
H     -0.00606801     -3.92928487      3.38221354     -1.04150441e+01   -1.61557800e+00    2.87758248e+00       -0.00003492     -0.00023113      0.00019264  
H     -0.06459203     -3.93827636      3.29305952     -1.45351365e+01   -8.42621231e+00    3.28445961e+00       -0.00003602     -0.00021917      0.00018579  
H     -0.14574433     -3.95592684      3.23240963     -5.00192789e+00   -4.52713430e+00   -1.15307144e+00       -0.00004050     -0.00018087      0.00015775  
H     -0.07082211     -3.85907205      3.23581491     -9.57696319e+00   -7.75643358e-01    9.51494387e+00       -0.00004274     -0.00021642      0.00018841  
H     -0.12075456     -3.84434515      3.26789916      6.71953817e+00   -6.33369392e+00    1.03252769e+01       -0.00003799     -0.00017921      0.00017194  
H     -0.16980604     -3.79746905      3.23310349      1.66026006e+00   -1.03892035e+00    8.68577714e+00       -0.00004043     -0.00026058      0.00025872  
H     -0.08589728     -3.83132570      3.28822720     -7.11744007e+00   -1.03267769e+01    1.09044985e+01       -0.00002415     -0.00025419      0.00026811  
H     -0.03604765     -3.85233235      3.42644874     -4.79493238e+00   -1.76895299e+00   -7.03103091e+00       -0.00003100     -0.00019135      0.00020161  
H     -0.10559299     -3.74909730      3.51207872      7.12789577e+00    2.52271900e+00   -4.63446091e-01       -0.00003860     -0.00020588      0.00020201  
H     -0.06302816     -3.56396015      3.64087981      3.04386099e+00    6.19862265e-01    1.98888375e+00       -0.00003919     -0.00022173      0.00022856  
H     -0.09044818     -3.61413607      3.59022458      2.49860642e-01    6.55013814e+00   -3.15669314e+00       -0.00002666     -0.00013114      0.00013658  
H     -0.10083764     -3.59965306      3.54139291      7.00253259e+00    1.50150489e+01    6.05143791e+00       -0.00004574     -0.00019719      0.00019355  
H     -0.07443663     -3.60793830      3.48811904      1.44489347e+01   -5.34548539e+00    4.98551567e-01       -0.00005087     -0.00025511      0.00022469  
H     -0.16036134     -3.58589019      3.51746127      6.78571687e+00    5.46377673e+00   -4.91865825e+00       -0.00006125     -0.00026295      0.00024583  
H     -0.13448834     -3.64623939      3.48874727      2.05986025e+00   -7.26057301e+00    5.18663228e+00       -0.00004413     -0.00017684      0.00016568  
H     -0.21140581     -3.51832900      3.47455065     -4.82333038e+00    9.89217853e+00    3.56895080e+00       -0.00005649     -0.00020390      0.00019545  
H     -0.19411498     -3.61671627      3.48141903      7.70614701e+00    5.17629290e+00   -6.80718864e+00       -0.00005684     -0.00019339      0.00019270  
H     -0.22576577     -3.75566070      3.49691870     -6.17228476e+00    6.43256846e+00    3.46955212e+00       -0.00005866     -0.00020955      0.00021175  
H     -0.17735043     -3.70053917      3.49700303     -9.96848043e+00   -9.69027205e+00   -2.03334919e-01       -0.00003919     -0.00014523      0.00014391  
H     -0.17621284     -3.67239871      3.46651687     -7.62771071e+00   -4.09131806e+00   -7.43658161e+00       -0.00005880     -0.00021382      0.00019842  
H     -0.08903923     -3.69469358      3.51159457      9.65951756e+00    8.04959769e+00    1.12536856e-01       -0.00002762     -0.00012980      0.00012915  
H     -0.10653670     -3.81226744      3.51985406      2.43804020e+01    1.37278166e+00   -2.60270023e+00       -0.00003118     -0.00013476      0.00013357  
H     -0.11414542     -3.79059129      3.62699556      4.14114922e+00   -2.69134921e+00   -1.65996064e+01       -0.00002574     -0.00012224      0.00011939  
H     -0.02784670     -3.81593188      3.62916016      9.15469807e+00    9.30364655e+00    3.74338475e+00       -0.00003281     -0.00013699      0.00014328  
