3
100000  xi=   0.44035780  Mean pot=  -107.11594887  Cent pot=  -109.41293307 kcal/mol
H      0.64879311      2.32452444     -1.60330095       0.22173764
H      0.12028499      2.84565357     -1.74783385       0.16278959
H     -0.76907810     -5.17017801      3.35113480       0.19078996
3
200000  xi=   0.44088239  Mean pot=  -105.99107078  Cent pot=  -109.49779375 kcal/mol
H     -2.73496895     -0.45989519     -1.52808633       0.16985066
H     -2.87212623      0.00272780     -0.96521584       0.19683005
H      5.60709518      0.45716739      2.49330216       0.20578799
3
300000  xi=   0.44499632  Mean pot=  -107.23929474  Cent pot=  -108.94112689 kcal/mol
H     -0.83241787     -2.95338612      0.08191355       0.15569725
H     -0.78974511     -2.88527008     -0.61986438       0.15533420
H      1.62216298      5.83865620      0.53795083       0.18842632
3
400000  xi=   0.43250321  Mean pot=  -107.30898011  Cent pot=  -108.84808471 kcal/mol
H     -2.86289237      1.23264684      0.44673518       0.17520719
H     -3.03714080      0.62905999      0.12980817       0.15674475
H      5.90003317     -1.86170683     -0.57654335       0.28367092
3
500000  xi=   0.44000086  Mean pot=  -106.62392900  Cent pot=  -109.32798116 kcal/mol
H     -0.18910365     -0.66199349     -2.88623537       0.22857880
H     -0.87622351     -0.84553727     -3.00949693       0.19370503
H      1.06532716      1.50753076      5.89573230       0.14051262
3
600000  xi=   0.44259754  Mean pot=  -106.97843464  Cent pot=  -109.49710983 kcal/mol
H      2.22840154      2.48121290     -0.36276287       0.15120011
H      1.67410172      2.19082444     -0.75836531       0.14061290
H     -3.90250326     -4.67203733      1.12112818       0.23269020
3
700000  xi=   0.44247850  Mean pot=  -107.17030009  Cent pot=  -109.43173695 kcal/mol
H      1.91001846     -2.06111590      0.82095684       0.15030916
H      2.60026292     -1.84972068      0.71819110       0.14022901
H     -4.51028138      3.91083658     -1.53914794       0.15577014
3
800000  xi=   0.44649931  Mean pot=  -107.23026928  Cent pot=  -109.16536422 kcal/mol
H     -0.38670872     -1.86405941      2.07777522       0.18181837
H     -0.63800749     -1.77101484      2.80054862       0.11843599
H      1.02471622      3.63507426     -4.87832384       0.20982091
3
900000  xi=   0.44612844  Mean pot=  -106.33760182  Cent pot=  -108.42907876 kcal/mol
H      2.15186733     -1.48056252      2.17510188       0.13908245
H      1.40320112     -1.22128430      2.10513429       0.18439560
H     -3.55506845      2.70184682     -4.28023617       0.20214721
3
1000000  xi=   0.45829051  Mean pot=  -107.44662739  Cent pot=  -109.21884938 kcal/mol
H     -0.37071693      0.62329742      2.69068897       0.20104554
H     -0.73580445      1.18339130      2.94800951       0.19536008
H      1.10652138     -1.80668873     -5.63869848       0.20120073
3
1100000  xi=   0.43862718  Mean pot=  -107.03370435  Cent pot=  -109.49532055 kcal/mol
H     -2.92316548     -0.50018842      1.53730099       0.16946443
H     -2.24823607     -0.36673940      1.80757568       0.18751111
H      5.17140155      0.86692782     -3.34487667       0.18577314
3
1200000  xi=   0.43821601  Mean pot=  -105.58709189  Cent pot=  -106.56141849 kcal/mol
H      2.28856122     -1.78587836     -0.43595995       0.16185596
H      2.40365321     -2.23073014      0.04397805       0.18845802
H     -4.69221443      4.01660850      0.39198190       0.31487276
3
1300000  xi=   0.43966529  Mean pot=  -104.43927919  Cent pot=  -106.47907295 kcal/mol
H     -0.83986141     -1.63685818      2.80277565       0.21991682
H     -0.93744402     -1.64056302      2.14654689       0.14951490
H      1.77730543      3.27742121     -4.94932253       0.18201953
3
1400000  xi=   0.43418864  Mean pot=  -107.10480869  Cent pot=  -108.67900462 kcal/mol
H     -1.35353448     -1.55872445     -2.62134682       0.18631021
H     -1.04531542     -0.93237602     -2.58162843       0.19383253
H      2.39884989      2.49110047      5.20297524       0.22996680
3
1500000  xi=   0.43699696  Mean pot=  -107.01848556  Cent pot=  -109.49663602 kcal/mol
H      1.93472763     -0.88519882      2.44834666       0.24875787
H      1.43534783     -0.36033001      2.61463553       0.17822727
H     -3.37007547      1.24552883     -5.06298219       0.16673253
3
1600000  xi=   0.43422086  Mean pot=  -107.03769391  Cent pot=  -109.41328869 kcal/mol
H      1.60325860      0.22171888      2.36553237       0.14804532
H      2.11796732     -0.21591534      2.70507693       0.16112229
H     -3.72122592     -0.00580354     -5.07060930       0.18163460
3
1700000  xi=   0.43485252  Mean pot=  -107.45798842  Cent pot=  -109.37212252 kcal/mol
H      2.78626317      0.74259223     -1.54926790       0.18287323
H      2.83815053      0.28176232     -0.94793630       0.17988638
H     -5.62441371     -1.02435455      2.49720420       0.22419951
3
1800000  xi=   0.44536014  Mean pot=  -106.12536624  Cent pot=  -109.36676287 kcal/mol
H      0.99109934      2.27774307      1.22220914       0.20277760
H      1.44193069      2.60530575      1.68468619       0.25078426
H     -2.43303003     -4.88304882     -2.90689532       0.19987830
3
1900000  xi=   0.43150915  Mean pot=  -107.59745191  Cent pot=  -109.17934931 kcal/mol
H      2.30490356      0.86759137     -2.18873200       0.17062003
H      1.68584921      1.22374020     -2.16157004       0.18051264
H     -3.99075277     -2.09133157      4.35030204       0.19653860
3
2000000  xi=   0.43242059  Mean pot=  -105.87367993  Cent pot=  -108.89180425 kcal/mol
H     -0.19587238      3.25151973      0.01976973       0.15012605
H      0.53528152      2.99802398      0.12901376       0.22482684
H     -0.33940913     -6.24954371     -0.14878349       0.22189389
