96
100000  xi=   0.89098248  Mean pot=  -106.03586906  Cent pot=  -108.83722853 kcal/mol
H     -0.49654137     -0.57221705     -0.85584205     -9.79811872e-01    1.23625439e+00   -1.53888631e+00      -17.39091634    -42.65330647    -12.60888075  
H     -0.60596692     -0.51200654     -0.82476075     -7.98874145e+00   -3.53430919e+00   -1.16256846e-01        4.40812686      4.55724210      2.29168351  
H     -0.44044587     -0.51758262     -0.81561515     -1.42412955e+01   -1.79697850e-01   -1.33560430e+01       40.01039127     71.70385413     31.20288438  
H     -0.47826601     -0.53769989     -0.96001277      1.66224341e+00   -2.37281864e-01   -5.30353029e+00      -18.36115364    -44.20076948    -38.58884816  
H     -0.38644576     -0.51853289     -0.98443258      3.14543093e+00   -1.18239439e+00    5.25033919e+00       -8.23974516    -30.57634019    -33.27365170  
H     -0.32408454     -0.34331520     -1.06103607      2.43037780e-01    2.86368516e+00    1.02646118e+01        5.69128746    -30.87109118    -46.36219694  
H     -0.43358210     -0.23403868     -1.13912125      3.19781513e-01   -2.71828650e+00    6.83798882e+00       -9.35293607    -29.18921188    -44.82301838  
H     -0.45755618     -0.32931445     -1.05968340      8.54093596e+00   -8.61945311e+00    3.86327964e+00       -8.58604442    -31.25859392    -34.32700491  
H     -0.50308130     -0.37250408     -0.98783434     -6.17522841e+00   -1.16443162e+01   -1.62679082e+01        0.90822463      0.56022382      1.40163044  
H     -0.67079250     -0.35495503     -0.95857415      6.72453931e+00   -1.26202295e-01   -4.25285833e+00      -11.45483622    -26.76203398    -23.85283590  
H     -0.65941681     -0.47031126     -0.89806381     -5.35712574e-01   -3.32888128e+00    3.83466645e-01      -11.07885971    -37.34734542    -15.51665924  
H     -0.73432481     -0.40247031     -0.88322085     -7.20972323e+00    2.76486961e-01    8.45537952e+00       -8.37696190    -24.16491458     -8.72438423  
H     -0.79662253     -0.49050377     -0.83081783      1.20301185e+00   -1.27287228e+01   -7.71162051e+00      -16.38855689    -52.59941625    -18.70952715  
H     -0.85252124     -0.43155669     -0.91746426     -4.24464189e+00   -7.34798737e-01   -1.36510591e+01        3.69946442      7.43694586      4.49076540  
H     -0.79680505     -0.49344572     -0.85724282     -1.54649307e+01    2.02232118e+01   -5.83388170e-02       -3.79839374    -29.00207542    -10.64694612  
H     -0.80710099     -0.54183336     -0.76208468     -1.71000592e+00    1.44032417e+00    1.20606838e+01      -20.75310940    -55.63111601    -12.75849735  
H     -0.77917055     -0.40824107     -0.74702288     -1.73488189e+00    2.29749534e+00    2.42649838e+00       -1.10846922     -3.01928111      0.08641075  
H     -0.79699787     -0.45979513     -0.70410759     -9.37341905e+00    1.25026897e+01    2.89133171e+00       -8.57760676    -22.53384891     -1.71709153  
H     -0.72550942     -0.48779278     -0.77458558     -3.32245560e-01   -1.32591713e+00    7.04618053e+00        2.80754842      7.43501229      3.65705135  
H     -0.75850973     -0.51544550     -0.79139218     -1.37428434e+01   -6.85965223e+00    7.09840958e+00        3.16198398      7.65052711      4.31796272  
H     -0.79100484     -0.50328823     -0.76005959     -1.18107574e+00   -1.39060283e+01   -1.48387587e+00       10.00899538     19.56891328     10.77365109  
H     -0.81539113     -0.47709415     -0.72363206      2.54357484e+00    5.07350853e+00   -1.55813742e+00       67.87369621     76.48114048     41.26638999  
H     -0.64774289     -0.52024715     -0.77406701     -1.04909269e+00    2.95436819e+00   -4.39621029e+00        3.09503758      5.78022616      4.04656422  
H     -0.62511767     -0.52554705     -0.68365739      8.42383766e+00    4.62374665e+00    1.26132402e+01      -13.43972264    -31.99132000    -11.27338903  
H     -0.43347271     -0.50284096     -0.60928607     -1.84748046e+00    7.32607508e+00    6.65605765e-01       20.69478189    155.12994607     35.72260223  
H     -0.35385416     -0.50416515     -0.71500070      2.32454778e+00   -3.52525350e+00    4.27340592e-03        1.00983468    135.44639518     19.63334935  
H     -0.39418885     -0.40069636     -0.66774680      5.76850497e-01   -1.20901465e+00   -6.68015801e+00       -0.53834701     90.80464098      0.99357699  
H     -0.47583672     -0.38556300     -0.66088136     -4.13193061e+00   -2.77513893e+00   -5.13292355e+00      148.37148712    371.78560058     24.52051543  
H     -0.48476743     -0.55037755     -0.66418976      4.00613911e+00    4.85540849e+00    1.09850125e+01       -2.01380147    -11.39676913      1.36748183  
H     -0.42095165     -0.60499107     -0.60819587     -2.88187850e-01    1.93174229e+01   -1.81223255e+00        6.34457427     31.83047093     -3.73596287  
H     -0.54564512     -0.60952786     -0.70611257      2.22167481e+00   -4.18801508e+00    3.55914980e+00       -6.68020949    -22.96883310     -3.81863454  
H     -0.58730011     -0.69539820     -0.79877806      1.51755241e+00   -1.05051941e+01    1.44877296e+00      -30.91807508    -82.07846928    -12.93443778  
H     -0.19698279      0.15182697     -0.63379976      7.97649202e+00   -2.23488451e+00   -4.68925613e+00       17.82132640     42.84410815     13.31478786  
H     -0.12931813      0.00332702     -0.60972604     -1.19450767e+01   -3.50767139e+00    1.04130177e+01       -3.91741010     -4.38143014     -1.55514688  
H     -0.14057649      0.02453999     -0.58433863     -3.57861830e-01   -3.35745827e+00    9.39923922e+00      -39.18550023    -71.41486701    -29.90850308  
H     -0.21945416      0.06281433     -0.42122923      8.88011114e-01    6.00809203e-01   -5.48557700e+00       19.53112623     44.71304433     40.52084149  
H     -0.23222521      0.01454005     -0.39016161     -6.04343527e+00    8.92707347e+00    1.39454307e+01        9.24321236     31.00471566     34.93080317  
H     -0.39646068      0.11143147     -0.36669986     -1.02543066e+00    5.02247741e+00    7.96774060e+00       -4.68317348     31.21760955     47.94883274  
H     -0.28485232      0.20758094     -0.45301321      5.38641879e+00   -2.99638255e+00   -2.70451373e+00       10.12893224     29.41848289     45.94879582  
H     -0.30194140      0.20311756     -0.46315025     -4.02890909e+00   -2.99226599e+00   -9.47735329e+00        9.41718043     31.44791109     35.51939735  
H     -0.28924509      0.12876429     -0.48547723     -8.92492245e+00    9.82219661e+00    6.52386787e+00        0.27666577     -0.27213623      0.22035539  
H     -0.41543672      0.19895300     -0.44418733     -7.11348164e+00   -1.21387745e+00   -2.29630893e+00       12.88030824     27.08676874     25.59937545  
H     -0.43052834      0.23336167     -0.58057602      1.19974995e+00    1.68993222e+00    5.63475939e+00       12.87679519     37.80351396     17.78018718  
H     -0.47545617      0.28032584     -0.61082527      3.47601404e+00    7.96687289e+00    8.14388194e+00        9.69704212     24.49669409     10.25089245  
H     -0.55184616      0.25989952     -0.55126220      3.85136154e+00    5.64863549e+00   -1.27601427e+01       17.60739782     52.99943872     20.11232074  
H     -0.59688609      0.17838476     -0.60489771     -8.52196448e+00   -4.23289871e+00   -6.57486327e+00       -2.63747104     -7.10793231     -3.24396017  
H     -0.68816492      0.23166232     -0.57651274     -2.49645012e+00    6.97867211e+00    4.98081926e+00        4.67693073     29.26126784     11.63998986  
H     -0.51424583      0.22616692     -0.57798134      5.30989547e+00    9.14651381e-01    9.73549815e+00       21.48015551     55.86891274     13.61368737  
H     -0.46315202      0.26149432     -0.66046446     -3.72706217e+00   -2.16358849e+01   -1.00648280e+00        1.71143782      3.20060048      0.71696515  
H     -0.51766602      0.25923579     -0.64055387     -2.50141653e-01   -1.06138020e+01    3.35612629e+00        8.89368947     22.67309457      2.13721396  
H     -0.50399580      0.14768094     -0.48730940     -5.39856405e+00   -1.37283265e+01   -4.90008640e+00       -2.37743014     -7.25225872     -3.07207443  
H     -0.52215039      0.09616554     -0.46784720     -5.93206540e-01   -4.84110278e-01   -3.01806000e+00       -2.70950957     -7.44657589     -3.71746491  
H     -0.50288859      0.07389814     -0.45146031     -1.49151990e+00    9.56921335e+00   -4.07132709e+00       -9.42355937    -19.31950744    -10.04493685  
H     -0.41787310     -0.02821240     -0.48305759     -8.96306973e-01   -2.25098442e+00    1.40530366e+01      -67.22052447    -76.17302914    -40.36970880  
H     -0.37698869      0.06606136     -0.42576359      7.88171313e+00    5.09887767e+00   -1.27457077e+01       -2.17527299     -5.30808689     -2.75614930  
H     -0.32300163      0.16157482     -0.41939629     -2.91384099e-01    1.31799713e+01   -1.01471745e+01       14.70302037     32.80555757     13.07557569  
H     -0.35623176      0.09380773     -0.47542095      1.17930809e+00    1.80015216e+00   -6.78826992e+00      -18.96311074   -154.25350356    -33.10015699  
H     -0.35100940      0.11872840     -0.62770643      1.27515501e+01   -1.89777982e+00    1.06913842e+00        0.36588994   -134.96073129    -17.27828740  
H     -0.40076858      0.25737764     -0.66477169      4.20451064e+00   -1.04508234e+01   -6.59203805e+00        1.80321417    -90.46528181      1.00889925  
H     -0.28258807      0.10037367     -0.63011841      4.13158468e+00   -1.25135472e+01    1.08976392e+01     -147.05481521   -371.17971196    -22.44150202  
H     -0.32739483      0.18787741     -0.70759207     -3.04639869e+00    1.71276934e+01    8.00697505e+00        2.98197126     11.79740275      0.09032365  
H     -0.29176750      0.08251399     -0.70284537      4.53339240e+00    2.04465037e+00   -2.37691458e+00       -5.26655801    -31.44109424      5.46842233  
H     -0.32012745      0.11718550     -0.56155218      1.42812953e+01   -6.41039969e-01   -2.55763529e+00        7.50098614     23.34617959      5.07340776  
H     -0.25980816      0.16494139     -0.65734475      6.22620054e+00    1.23153708e+01   -2.29009490e+00       31.43872018     82.34230780     13.69912573  
H      1.03359832      0.26665264      1.58059231      1.69444849e+01    7.41429910e+00   -4.49303876e+00       -0.43041005     -0.19080168     -0.70590712  
H      1.09284192      0.23853108      1.51898377     -3.20916492e+00   -8.75203446e+00   -7.97761429e+00       -0.49071676     -0.17581196     -0.73653664  
H      1.07584478      0.22187924      1.44967396      5.63154546e+00    2.02416554e+01    3.88885225e-01       -0.82489105     -0.28898711     -1.29438131  
H      0.89675674      0.19808060      1.34116089      3.11721952e+00    1.26399268e+01   -6.56644213e-01       -1.16997259     -0.51227485     -1.93199333  
H      0.97869639      0.20947832      1.37555725      5.62263668e+00   -9.97478884e+00    7.67030096e+00       -1.00346720     -0.42837547     -1.65715147  
H      1.04893516      0.25734009      1.31680670      4.97948093e-01   -6.86379492e+00    1.31150526e+00       -1.00811398     -0.34651837     -1.58663580  
H      1.12142232      0.35133557      1.26575717     -1.34676411e+00    5.58275781e+00    6.89066642e+00       -0.77599617     -0.22927101     -1.12577744  
H      1.11933367      0.17455139      1.31127491      2.30689170e+00   -8.00225991e-01   -2.39918689e+00       -0.83113601     -0.18931717     -1.19239243  
H      1.07671975      0.17775564      1.25227155     -8.56658067e+00   -1.78012074e+00    2.34723201e+00       -1.18489040     -0.28808759     -1.62198583  
H      1.01569731      0.18199351      1.16986708     -1.42941767e+01   -8.65295053e+00    2.27071436e+00       -1.42547201     -0.32473476     -1.74653955  
H      0.93073361      0.16021213      1.11418600     -4.11241147e+00   -3.81246010e+00   -2.40768559e+00       -1.79793548     -0.45616854     -2.26352794  
H      1.01838037      0.24990573      1.13431992     -8.80645016e+00   -1.73299392e+00    8.46062144e+00       -1.32008021     -0.33177951     -1.52650822  
H      0.95608004      0.28134386      1.18577528      6.70731901e+00   -4.28839841e+00    7.36375767e+00       -1.21884093     -0.40002247     -1.40279359  
H      0.91225199      0.31135636      1.15902090      3.09341918e+00   -2.08753131e+00    8.81517729e+00       -1.06199338     -0.32901355     -1.24680523  
H      0.99126940      0.27577347      1.21896034     -8.38877176e+00   -8.92452952e+00    7.45748334e+00       -0.87853699     -0.25919242     -0.99304373  
H      1.03121383      0.24547807      1.35585305     -3.00057567e+00   -2.42147809e+00   -8.47831964e+00       -0.72704611     -0.23779673     -0.85519002  
H      0.96751615      0.34050364      1.45012485      5.77131517e+00    4.73543516e+00   -4.76768137e+00       -0.60296860     -0.18131937     -0.80337590  
H      0.99925785      0.52615265      1.58289650      4.38847524e+00    6.69849902e-01   -4.84487680e-01       -0.31608270     -0.13924566     -0.42012242  
H      0.98060194      0.45956906      1.54004065      1.39907883e-01    6.59577931e+00   -4.55347531e+00       -0.43011828     -0.18275357     -0.58497692  
H      0.96062517      0.48686864      1.49458489      6.56668051e+00    1.70969363e+01    1.97742440e+00       -0.45247440     -0.20395122     -0.60049781  
H      0.98449871      0.47023423      1.42607292      1.59270178e+01   -6.42625016e+00   -2.12948611e-01       -0.58543601     -0.24940584     -0.72871425  
H      0.90211018      0.49549497      1.44455215      4.97522148e+00    8.70618782e+00   -8.22653087e+00       -0.65317174     -0.30811134     -0.89668119  
H      0.91197723      0.45631892      1.40178332      4.14643005e+00   -8.97310232e+00    6.20866532e+00       -0.91976460     -0.47213927     -1.29041492  
H      0.84595116      0.57433699      1.36355270     -6.86216622e+00    1.28110123e+01    1.36098919e+00       -1.26329773     -0.81423757     -1.80218666  
H      0.85409865      0.49553224      1.35111723      8.86507843e+00    4.47593875e+00   -6.27402286e+00       -1.73167115     -0.87644251     -2.62244524  
H      0.82184506      0.35562574      1.35658909     -7.23108449e+00    7.41706017e+00    2.66286339e+00       -1.37572462     -0.48566389     -2.35506195  
H      0.87729989      0.40800770      1.35470196     -1.01144567e+01   -8.60133202e+00    9.48914721e-02       -1.26486716     -0.33935918     -2.00247624  
H      0.87037168      0.43947559      1.32270792     -6.56408703e+00   -6.20801150e+00   -6.46075575e+00       -1.31667191     -0.60588862     -2.07901342  
H      0.96778452      0.40690112      1.37460476      7.98971884e+00    1.06704752e+01   -1.99269362e+00       -0.96816980     -0.40063362     -1.45780548  
H      0.94338170      0.29679985      1.39149174      2.57004518e+01   -5.31757156e-01   -3.47406116e+00       -1.07801626     -0.38937669     -1.73245946  
H      0.94157232      0.30093560      1.49463590      3.01324972e+00    1.30691294e-01   -2.07395516e+01       -0.82077666     -0.37734649     -1.25477321  
H      1.03137948      0.28147320      1.50204761      1.01586498e+01    8.58591806e+00    2.32712273e+00       -0.52064511     -0.26383852     -0.76468795  
